version 2
run wsnSc1T7-1-20200331-18:16:47-15835
attr configname wsnSc1T7
attr datetime 20200331-18:16:47
attr experiment wsnSc1T7
attr inifile wsnSc1.ini
attr iterationvars $fuzzyCtrl=false
attr iterationvarsf fuzzyCtrl=false-
attr measurement $fuzzyCtrl=false
attr network Sc1
attr processid 15835
attr repetition 0
attr replication #0
attr resultdir results
attr runnumber 1
attr seedset 1
itervar fuzzyCtrl false
param *.sensor*.wlan[*].bitrate 48Mbps
param *.sensor*.numApps 1
param *.sensor*.app[0].typename "\"UdpApp\""
param *.sensor*.app[0].destPort 6343
param *.sensor*.app[0].startTime 1s
param *.sensor*.app[0].messageLength 9375Byte
param *.sensor1.sinkAddress "\"sink1\""
param *.sensor1.app[0].sendInterval 214.285714s
param *.sensor2.sinkAddress "\"sink1\""
param *.sensor2.app[0].sendInterval 3.75s
param *.sensor3.sinkAddress "\"sink1\""
param *.sensor3.app[0].sendInterval 3.75s
param *.sensor4.sinkAddress "\"sink1\""
param *.sensor4.app[0].sendInterval 3.75s
param *.sensor5.sinkAddress "\"sink1\""
param *.sensor5.app[0].sendInterval 0.01875s
param *.sensor5.wlan[*].mac.dcf.maxQueueSize 1000
param *.sensor6.sinkAddress "\"sink1\""
param *.sensor6.app[0].sendInterval 0.01875s
param *.sensor6.wlan[*].mac.dcf.maxQueueSize 1000
param *.sensor7.sinkAddress "\"sink1\""
param *.sensor7.app[0].sendInterval 0.01875s
param *.sensor7.wlan[*].mac.dcf.maxQueueSize 1000
param **.arp.typename "\"GlobalArp\""
param **.netmaskRoutes "\"\""
param *.*.wlan[*].mac.mtu 9375Byte
param *.ap*.wlan[*].mgmt.beaconInterval 0.05s
param *.ap*.hasStatus true
param *.ap*.energyStorage.typename "\"SimpleEpEnergyStorage\""
param *.ap*.wlan[*].radio.energyConsumer.typename "\"Ieee80211StateBasedEpEnergyConsumer\""
param *.ap*.energyManagement.typename "\"SimpleEpEnergyManagement\""
param *.ap*.energyManagement.nodeShutdownCapacity "0.1 * energyStorage.nominalCapacity"
param *.ap*.energyManagement.nodeStartCapacity "0.5 * energyStorage.nominalCapacity"
param *.ap*.energyStorage.nominalCapacity 1000J
param *.ap*.energyStorage.initialCapacity 1000J
param *.ap1.wlan[*].mgmt.sinkAddress "\"sink1\""
param *.ap1.wlan[*].radio.energyConsumer.energySourceModule "\"ap1.energyStorage\""
param *.ap2.wlan[*].mgmt.sinkAddress "\"sink2\""
param *.ap2.wlan[*].radio.energyConsumer.energySourceModule "\"ap2.energyStorage\""
param *.ap3.wlan[*].mgmt.sinkAddress "\"sink3\""
param *.ap3.wlan[*].radio.energyConsumer.energySourceModule "\"ap3.energyStorage\""
param *.sink*.wlan[*].mgmt.typename "\"Ieee80211MgmtSta\""
param *.sink*.wlan[*].agent.typename "\"AgentSink\""
param *.sink1.wlan[*].agent.assocApAddress "\"ap1\""
param *.sink2.wlan[*].agent.assocApAddress "\"ap2\""
param *.sink3.wlan[*].agent.assocApAddress "\"ap3\""
param *.sink*.numApps 1
param *.sink*.app[0].typename "\"UdpSinkAdap\""
param *.sink*.app[0].localPort 6343
param *.visualizer.dataLinkVisualizer.displayLinks true
param *.ap*.wlan[*].radio.displayCommunicationRange true
param *.controller.fuzzyControlled false

scalar Sc1.radioMedium.propagation "Arrival computation count" 12260796
scalar Sc1.radioMedium "transmission count" 1021733
scalar Sc1.radioMedium "signal send count" 12260796
scalar Sc1.radioMedium "reception computation count" 12260796
scalar Sc1.radioMedium "interference computation count" 37659946
scalar Sc1.radioMedium "reception decision computation count" 10867300
scalar Sc1.radioMedium "listening decision computation count" 14546453
scalar Sc1.radioMedium "reception cache hit" 85.018432729701
attr unit %
scalar Sc1.radioMedium "interference cache hit" 66.666666666667
attr unit %
scalar Sc1.radioMedium "noise cache hit" 0
attr unit %
scalar Sc1.radioMedium "snir cache hit" 50
attr unit %
scalar Sc1.radioMedium "reception decision cache hit" 50
attr unit %
scalar Sc1.radioMedium "reception result cache hit" 0
attr unit %
scalar Sc1.sensor1.lo[0].lo rcvdPkFromHl:count 0
attr interpolationmode none
attr source packetReceivedFromUpper
attr title "packets received from higher layer, count"
scalar Sc1.sensor1.lo[0].lo rcvdPkFromHl:sum(packetBytes) 0
attr interpolationmode none
attr source packetReceivedFromUpper
attr title "packets received from higher layer, sum(packetBytes)"
scalar Sc1.sensor1.lo[0].lo passedUpPk:count 0
attr interpolationmode none
attr source packetSentToUpper
attr title "packets passed to higher layer, count"
scalar Sc1.sensor1.lo[0].lo passedUpPk:sum(packetBytes) 0
attr interpolationmode none
attr source packetSentToUpper
attr title "packets passed to higher layer, sum(packetBytes)"
scalar Sc1.sensor1.wlan[0].agent dropConfirm:count 0
attr title "dropped confirms, count"
scalar Sc1.sensor1.wlan[0].agent acceptConfirm:count 3
attr title "accepted confirms, count"
scalar Sc1.sensor1.wlan[0].agent sentRequest:count 129
attr title "sent requests, count"
scalar Sc1.sensor1.wlan[0].mac rcvdPkFromLl:count 506437
attr interpolationmode none
attr source packetReceivedFromLower
attr title "packets received from lower layer, count"
scalar Sc1.sensor1.wlan[0].mac rcvdPkFromLl:sum(packetBytes) 235462569
attr interpolationmode none
attr source packetReceivedFromLower
attr title "packets received from lower layer, sum(packetBytes)"
scalar Sc1.sensor1.wlan[0].mac sentDownPk:count 911
attr interpolationmode none
attr source packetSentToLower
attr title "packets sent to lower layer, count"
scalar Sc1.sensor1.wlan[0].mac sentDownPk:sum(packetBytes) 50579
attr interpolationmode none
attr source packetSentToLower
attr title "packets sent to lower layer, sum(packetBytes)"
scalar Sc1.sensor1.wlan[0].mac rcvdPkFromHl:count 4
attr interpolationmode none
attr source packetReceivedFromUpper
attr title "packets received from higher layer, count"
scalar Sc1.sensor1.wlan[0].mac rcvdPkFromHl:sum(packetBytes) 18878
attr interpolationmode none
attr source packetReceivedFromUpper
attr title "packets received from higher layer, sum(packetBytes)"
scalar Sc1.sensor1.wlan[0].mac passedUpPk:count 0
attr interpolationmode none
attr source packetSentToUpper
attr title "packets passed to higher layer, count"
scalar Sc1.sensor1.wlan[0].mac passedUpPk:sum(packetBytes) 0
attr interpolationmode none
attr source packetSentToUpper
attr title "packets passed to higher layer, sum(packetBytes)"
scalar Sc1.sensor1.wlan[0].mac packetDropIncorrectlyReceived:count 2656
attr interpolationmode none
attr source packetDropReasonIsIncorrectlyReceived(packetDropped)
attr title "packet drop: incorrectly received, count"
scalar Sc1.sensor1.wlan[0].mac packetDropIncorrectlyReceived:sum(packetBytes) 1413748
attr interpolationmode none
attr source packetDropReasonIsIncorrectlyReceived(packetDropped)
attr title "packet drop: incorrectly received, sum(packetBytes)"
scalar Sc1.sensor1.wlan[0].mac packetDropNotAddressedToUs:count 495677
attr interpolationmode none
attr source packetDropReasonIsNotAddressedToUs(packetDropped)
attr title "packet drop: not addressed to us, count"
scalar Sc1.sensor1.wlan[0].mac packetDropNotAddressedToUs:sum(packetBytes) 233660595
attr interpolationmode none
attr source packetDropReasonIsNotAddressedToUs(packetDropped)
attr title "packet drop: not addressed to us, sum(packetBytes)"
scalar Sc1.sensor1.wlan[0].mac packetDropQueueOverflow:count 0
attr interpolationmode none
attr source packetDropReasonIsQueueOverflow(packetDropped)
attr title "packet drop: queue overflow, count"
scalar Sc1.sensor1.wlan[0].mac packetDropQueueOverflow:sum(packetBytes) 0
attr interpolationmode none
attr source packetDropReasonIsQueueOverflow(packetDropped)
attr title "packet drop: queue overflow, sum(packetBytes)"
scalar Sc1.sensor1.wlan[0].mac packetDropRetryLimitReached:count 126
attr interpolationmode none
attr source packetDropReasonIsRetryLimitReached(packetDropped)
attr title "packet drop: retry limit reached, count"
scalar Sc1.sensor1.wlan[0].mac packetDropRetryLimitReached:sum(packetBytes) 3780
attr interpolationmode none
attr source packetDropReasonIsRetryLimitReached(packetDropped)
attr title "packet drop: retry limit reached, sum(packetBytes)"
scalar Sc1.sensor1.wlan[0].mac linkBroken:count 126
attr interpolationmode none
attr source linkBroken
attr title "link break, count"
statistic Sc1.sensor1.wlan[0].radio radioChannel:histogram
field count 4
field mean 0
field stddev 0
field min 0
field max 0
field sum 0
field sqrsum 0
attr interpolationmode sample-hold
attr source radioChannelChanged
attr title "Radio channel, histogram"
bin	-inf	0
bin	-0.5	0
bin	-0.48	0
bin	-0.46	0
bin	-0.44	0
bin	-0.42	0
bin	-0.4	0
bin	-0.38	0
bin	-0.36	0
bin	-0.34	0
bin	-0.32	0
bin	-0.3	0
bin	-0.28	0
bin	-0.26	0
bin	-0.24	0
bin	-0.22	0
bin	-0.2	0
bin	-0.18	0
bin	-0.16	0
bin	-0.14	0
bin	-0.12	0
bin	-0.1	0
bin	-0.08	0
bin	-0.06	0
bin	-0.04	0
bin	-0.02	0
bin	0	4
bin	0.02	0
bin	0.04	0
bin	0.06	0
bin	0.08	0
bin	0.1	0
bin	0.12	0
bin	0.14	0
bin	0.16	0
bin	0.18	0
bin	0.2	0
bin	0.22	0
bin	0.24	0
bin	0.26	0
bin	0.28	0
bin	0.3	0
bin	0.32	0
bin	0.34	0
bin	0.36	0
bin	0.38	0
bin	0.4	0
bin	0.42	0
bin	0.44	0
bin	0.46	0
bin	0.48	0
bin	0.5	0
scalar Sc1.sensor1.wlan[0].radio radioMode:count 1825
attr interpolationmode sample-hold
attr source radioModeChanged
attr title "Radio mode, count"
scalar Sc1.sensor1.wlan[0].radio receptionState:count 1023385
attr interpolationmode sample-hold
attr source receptionStateChanged
attr title "Radio reception state, count"
scalar Sc1.sensor1.wlan[0].radio transmissionState:count 3644
attr interpolationmode sample-hold
attr source transmissionStateChanged
attr title "Radio transmission state, count"
statistic Sc1.sensor1.wlan[0].radio minSnir:histogram
field count 506437
field mean 438.27541643613
field stddev 42.895391956373
field min 0.44029447218233
field max 795.74380265701
field sum 221958887.07367
field sqrsum 98210973323.752
attr source minimumSnir(packetSentToUpper)
attr title "Min SNIR, histogram"
bin	-inf	0
bin	0	2656
bin	20	0
bin	40	0
bin	60	0
bin	80	0
bin	100	0
bin	120	0
bin	140	0
bin	160	0
bin	180	0
bin	200	0
bin	220	0
bin	240	0
bin	260	0
bin	280	0
bin	300	0
bin	320	0
bin	340	0
bin	360	0
bin	380	0
bin	400	0
bin	420	498214
bin	440	0
bin	460	0
bin	480	0
bin	500	0
bin	520	0
bin	540	0
bin	560	0
bin	580	0
bin	600	0
bin	620	0
bin	640	0
bin	660	0
bin	680	4343
bin	700	0
bin	720	0
bin	740	0
bin	760	0
bin	780	1224
bin	800	0
bin	820	0
bin	840	0
bin	860	0
bin	880	0
bin	900	0
bin	920	0
bin	940	0
bin	960	0
bin	980	0
bin	1000	0
statistic Sc1.sensor1.wlan[0].radio packetErrorRate:histogram
field count 506437
field mean 0.0052444825318845
field stddev 0.072228721684757
field min 0
field max 1
field sum 2656
field sqrsum 2656
attr source packetErrorRate(packetSentToUpper)
attr title "Packet error rate, histogram"
bin	-inf	0
bin	0	503781
bin	1	2656
bin	2	0
statistic Sc1.sensor1.wlan[0].radio bitErrorRate:histogram
field count 0
field mean -nan
field stddev -nan
field min -nan
field max -nan
field sum 0
field sqrsum 0
attr source bitErrorRate(packetSentToUpper)
attr title "Bit error rate, histogram"
bin	-inf	0
bin	0	0
bin	1	0
statistic Sc1.sensor1.wlan[0].radio symbolErrorRate:histogram
field count 0
field mean -nan
field stddev -nan
field min -nan
field max -nan
field sum 0
field sqrsum 0
attr source symbolErrorRate(packetSentToUpper)
attr title "Symbol error rate, histogram"
bin	-inf	0
bin	0	0
bin	1	0
scalar Sc1.sensor1.ipv4.ip packetDropAddressResolutionFailed:count 0
attr interpolationmode none
attr source packetDropReasonIsAddressResolutionFailed(packetDropped)
attr title "packet drop: address resolution failed, count"
scalar Sc1.sensor1.ipv4.ip packetDropAddressResolutionFailed:sum(packetBytes) 0
attr interpolationmode none
attr source packetDropReasonIsAddressResolutionFailed(packetDropped)
attr title "packet drop: address resolution failed, sum(packetBytes)"
scalar Sc1.sensor1.ipv4.ip packetDropHopLimitReached:count 0
attr interpolationmode none
attr source packetDropReasonIsHopLimitReached(packetDropped)
attr title "packet drop: hop limit reached, count"
scalar Sc1.sensor1.ipv4.ip packetDropHopLimitReached:sum(packetBytes) 0
attr interpolationmode none
attr source packetDropReasonIsHopLimitReached(packetDropped)
attr title "packet drop: hop limit reached, sum(packetBytes)"
scalar Sc1.sensor1.ipv4.ip packetDropForwardingDisabled:count 0
attr interpolationmode none
attr source packetDropReasonIsForwardingDisabled(packetDropped)
attr title "packet drop: forwarding disabled, count"
scalar Sc1.sensor1.ipv4.ip packetDropForwardingDisabled:sum(packetBytes) 0
attr interpolationmode none
attr source packetDropReasonIsForwardingDisabled(packetDropped)
attr title "packet drop: forwarding disabled, sum(packetBytes)"
scalar Sc1.sensor1.ipv4.ip packetDropNoInterfaceFound:count 0
attr interpolationmode none
attr source packetDropReasonIsNoInterfaceFound(packetDropped)
attr title "packet drop: no interface found, count"
scalar Sc1.sensor1.ipv4.ip packetDropNoInterfaceFound:sum(packetBytes) 0
attr interpolationmode none
attr source packetDropReasonIsNoInterfaceFound(packetDropped)
attr title "packet drop: no interface found, sum(packetBytes)"
scalar Sc1.sensor1.ipv4.ip packetDropNoRouteFound:count 0
attr interpolationmode none
attr source packetDropReasonIsNoRouteFound(packetDropped)
attr title "packet drop: no route found, count"
scalar Sc1.sensor1.ipv4.ip packetDropNoRouteFound:sum(packetBytes) 0
attr interpolationmode none
attr source packetDropReasonIsNoRouteFound(packetDropped)
attr title "packet drop: no route found, sum(packetBytes)"
scalar Sc1.sensor1.ipv4.ip packetDropUndefined:count 0
attr interpolationmode none
attr source packetDropReasonIsUndefined(packetDropped)
attr title "packet drop: undefined, count"
scalar Sc1.sensor1.ipv4.ip packetDropUndefined:sum(packetBytes) 0
attr interpolationmode none
attr source packetDropReasonIsUndefined(packetDropped)
attr title "packet drop: undefined, sum(packetBytes)"
scalar Sc1.sensor1.udp packetReceived:count 0
attr interpolationmode none
attr source packetReceived
attr title "packets received, count"
scalar Sc1.sensor1.udp packetReceived:sum(packetBytes) 0
attr interpolationmode none
attr source packetReceived
attr title "packets received, sum(packetBytes)"
scalar Sc1.sensor1.udp packetSent:count 2
attr interpolationmode none
attr source packetSent
attr title "packets sent, count"
scalar Sc1.sensor1.udp packetSent:sum(packetBytes) 18766
attr interpolationmode none
attr source packetSent
attr title "packets sent, sum(packetBytes)"
scalar Sc1.sensor1.udp passedUpPk:count 0
attr interpolationmode none
attr source packetSentToUpper
attr title "packets passed up, count"
scalar Sc1.sensor1.udp droppedPkWrongPort:count 0
attr interpolationmode none
attr source packetDropReasonIsNoPortFound(packetDropped)
attr title "packets dropped (wrong port), count"
scalar Sc1.sensor1.udp droppedPkBadChecksum:count 0
attr interpolationmode none
attr source packetDropReasonIsIncorrectlyReceived(packetDropped)
attr title "packets dropped (checksum error), count"
scalar Sc1.sensor1.app[0] "packets sent" 2
scalar Sc1.sensor1.app[0] "packets received" 0
scalar Sc1.sensor1.app[0] packetReceived:count 0
attr interpolationmode none
attr source packetReceived
attr title "packets received, count"
scalar Sc1.sensor1.app[0] packetReceived:sum(packetBytes) 0
attr interpolationmode none
attr source packetReceived
attr title "packets received, sum(packetBytes)"
statistic Sc1.sensor1.app[0] rcvdPkLifetime:stats
field count 0
field mean -nan
field stddev -nan
field min -nan
field max -nan
field sum 0
field sqrsum 0
attr interpolationmode none
attr source dataAge(packetReceived)
attr title "received packet lifetime, stats"
attr unit s
scalar Sc1.sensor1.app[0] packetSent:count 2
attr interpolationmode none
attr source packetSent
attr title "packets sent, count"
scalar Sc1.sensor1.app[0] packetSent:sum(packetBytes) 18750
attr interpolationmode none
attr source packetSent
attr title "packets sent, sum(packetBytes)"
scalar Sc1.sensor2.lo[0].lo rcvdPkFromHl:count 0
attr interpolationmode none
attr source packetReceivedFromUpper
attr title "packets received from higher layer, count"
scalar Sc1.sensor2.lo[0].lo rcvdPkFromHl:sum(packetBytes) 0
attr interpolationmode none
attr source packetReceivedFromUpper
attr title "packets received from higher layer, sum(packetBytes)"
scalar Sc1.sensor2.lo[0].lo passedUpPk:count 0
attr interpolationmode none
attr source packetSentToUpper
attr title "packets passed to higher layer, count"
scalar Sc1.sensor2.lo[0].lo passedUpPk:sum(packetBytes) 0
attr interpolationmode none
attr source packetSentToUpper
attr title "packets passed to higher layer, sum(packetBytes)"
scalar Sc1.sensor2.wlan[0].agent dropConfirm:count 0
attr title "dropped confirms, count"
scalar Sc1.sensor2.wlan[0].agent acceptConfirm:count 3
attr title "accepted confirms, count"
scalar Sc1.sensor2.wlan[0].agent sentRequest:count 129
attr title "sent requests, count"
scalar Sc1.sensor2.wlan[0].mac rcvdPkFromLl:count 905304
attr interpolationmode none
attr source packetReceivedFromLower
attr title "packets received from lower layer, count"
scalar Sc1.sensor2.wlan[0].mac rcvdPkFromLl:sum(packetBytes) 479609943
attr interpolationmode none
attr source packetReceivedFromLower
attr title "packets received from lower layer, sum(packetBytes)"
scalar Sc1.sensor2.wlan[0].mac sentDownPk:count 1562
attr interpolationmode none
attr source packetSentToLower
attr title "packets sent to lower layer, count"
scalar Sc1.sensor2.wlan[0].mac sentDownPk:sum(packetBytes) 854630
attr interpolationmode none
attr source packetSentToLower
attr title "packets sent to lower layer, sum(packetBytes)"
scalar Sc1.sensor2.wlan[0].mac rcvdPkFromHl:count 126
attr interpolationmode none
attr source packetReceivedFromUpper
attr title "packets received from higher layer, count"
scalar Sc1.sensor2.wlan[0].mac rcvdPkFromHl:sum(packetBytes) 594657
attr interpolationmode none
attr source packetReceivedFromUpper
attr title "packets received from higher layer, sum(packetBytes)"
scalar Sc1.sensor2.wlan[0].mac passedUpPk:count 1
attr interpolationmode none
attr source packetSentToUpper
attr title "packets passed to higher layer, count"
scalar Sc1.sensor2.wlan[0].mac passedUpPk:sum(packetBytes) 64
attr interpolationmode none
attr source packetSentToUpper
attr title "packets passed to higher layer, sum(packetBytes)"
scalar Sc1.sensor2.wlan[0].mac packetDropIncorrectlyReceived:count 7520
attr interpolationmode none
attr source packetDropReasonIsIncorrectlyReceived(packetDropped)
attr title "packet drop: incorrectly received, count"
scalar Sc1.sensor2.wlan[0].mac packetDropIncorrectlyReceived:sum(packetBytes) 4967502
attr interpolationmode none
attr source packetDropReasonIsIncorrectlyReceived(packetDropped)
attr title "packet drop: incorrectly received, sum(packetBytes)"
scalar Sc1.sensor2.wlan[0].mac packetDropNotAddressedToUs:count 886128
attr interpolationmode none
attr source packetDropReasonIsNotAddressedToUs(packetDropped)
attr title "packet drop: not addressed to us, count"
scalar Sc1.sensor2.wlan[0].mac packetDropNotAddressedToUs:sum(packetBytes) 474102161
attr interpolationmode none
attr source packetDropReasonIsNotAddressedToUs(packetDropped)
attr title "packet drop: not addressed to us, sum(packetBytes)"
scalar Sc1.sensor2.wlan[0].mac packetDropQueueOverflow:count 0
attr interpolationmode none
attr source packetDropReasonIsQueueOverflow(packetDropped)
attr title "packet drop: queue overflow, count"
scalar Sc1.sensor2.wlan[0].mac packetDropQueueOverflow:sum(packetBytes) 0
attr interpolationmode none
attr source packetDropReasonIsQueueOverflow(packetDropped)
attr title "packet drop: queue overflow, sum(packetBytes)"
scalar Sc1.sensor2.wlan[0].mac packetDropRetryLimitReached:count 131
attr interpolationmode none
attr source packetDropReasonIsRetryLimitReached(packetDropped)
attr title "packet drop: retry limit reached, count"
scalar Sc1.sensor2.wlan[0].mac packetDropRetryLimitReached:sum(packetBytes) 11280
attr interpolationmode none
attr source packetDropReasonIsRetryLimitReached(packetDropped)
attr title "packet drop: retry limit reached, sum(packetBytes)"
scalar Sc1.sensor2.wlan[0].mac linkBroken:count 131
attr interpolationmode none
attr source linkBroken
attr title "link break, count"
statistic Sc1.sensor2.wlan[0].radio radioChannel:histogram
field count 4
field mean 0
field stddev 0
field min 0
field max 0
field sum 0
field sqrsum 0
attr interpolationmode sample-hold
attr source radioChannelChanged
attr title "Radio channel, histogram"
bin	-inf	0
bin	-0.5	0
bin	-0.48	0
bin	-0.46	0
bin	-0.44	0
bin	-0.42	0
bin	-0.4	0
bin	-0.38	0
bin	-0.36	0
bin	-0.34	0
bin	-0.32	0
bin	-0.3	0
bin	-0.28	0
bin	-0.26	0
bin	-0.24	0
bin	-0.22	0
bin	-0.2	0
bin	-0.18	0
bin	-0.16	0
bin	-0.14	0
bin	-0.12	0
bin	-0.1	0
bin	-0.08	0
bin	-0.06	0
bin	-0.04	0
bin	-0.02	0
bin	0	4
bin	0.02	0
bin	0.04	0
bin	0.06	0
bin	0.08	0
bin	0.1	0
bin	0.12	0
bin	0.14	0
bin	0.16	0
bin	0.18	0
bin	0.2	0
bin	0.22	0
bin	0.24	0
bin	0.26	0
bin	0.28	0
bin	0.3	0
bin	0.32	0
bin	0.34	0
bin	0.36	0
bin	0.38	0
bin	0.4	0
bin	0.42	0
bin	0.44	0
bin	0.46	0
bin	0.48	0
bin	0.5	0
scalar Sc1.sensor2.wlan[0].radio radioMode:count 3127
attr interpolationmode sample-hold
attr source radioModeChanged
attr title "Radio mode, count"
scalar Sc1.sensor2.wlan[0].radio receptionState:count 1815926
attr interpolationmode sample-hold
attr source receptionStateChanged
attr title "Radio reception state, count"
scalar Sc1.sensor2.wlan[0].radio transmissionState:count 6248
attr interpolationmode sample-hold
attr source transmissionStateChanged
attr title "Radio transmission state, count"
statistic Sc1.sensor2.wlan[0].radio minSnir:histogram
field count 905304
field mean 2796.3782619681
field stddev 1444.8724387452
field min 0.11617527869748
field max 4033.5718454157
field sum 2531572426.0728
field sqrsum 8969195670388.1
attr source minimumSnir(packetSentToUpper)
attr title "Min SNIR, histogram"
bin	-inf	0
bin	0	7635
bin	100	0
bin	200	0
bin	300	0
bin	400	105003
bin	500	0
bin	600	5478
bin	700	582
bin	800	96801
bin	900	0
bin	1000	46
bin	1100	0
bin	1200	0
bin	1300	0
bin	1400	0
bin	1500	0
bin	1600	0
bin	1700	0
bin	1800	0
bin	1900	191545
bin	2000	0
bin	2100	0
bin	2200	0
bin	2300	0
bin	2400	0
bin	2500	0
bin	2600	0
bin	2700	0
bin	2800	0
bin	2900	0
bin	3000	0
bin	3100	0
bin	3200	0
bin	3300	0
bin	3400	0
bin	3500	0
bin	3600	0
bin	3700	0
bin	3800	0
bin	3900	0
bin	4000	498214
bin	4100	0
bin	4200	0
bin	4300	0
bin	4400	0
bin	4500	0
bin	4600	0
bin	4700	0
bin	4800	0
bin	4900	0
bin	5000	0
statistic Sc1.sensor2.wlan[0].radio packetErrorRate:histogram
field count 905304
field mean 0.0083066184398695
field stddev 0.090411328704986
field min 0
field max 1
field sum 7520.0149000876
field sqrsum 7462.6012437416
attr source packetErrorRate(packetSentToUpper)
attr title "Packet error rate, histogram"
bin	-inf	0
bin	-0.5	0
bin	-0.48	0
bin	-0.46	0
bin	-0.44	0
bin	-0.42	0
bin	-0.4	0
bin	-0.38	0
bin	-0.36	0
bin	-0.34	0
bin	-0.32	0
bin	-0.3	0
bin	-0.28	0
bin	-0.26	0
bin	-0.24	0
bin	-0.22	0
bin	-0.2	0
bin	-0.18	0
bin	-0.16	0
bin	-0.14	0
bin	-0.12	0
bin	-0.1	0
bin	-0.08	0
bin	-0.06	0
bin	-0.04	0
bin	-0.02	0
bin	0	897669
bin	0.02	0
bin	0.04	0
bin	0.06	0
bin	0.08	0
bin	0.1	0
bin	0.12	0
bin	0.14	0
bin	0.16	0
bin	0.18	0
bin	0.2	32
bin	0.22	0
bin	0.24	0
bin	0.26	0
bin	0.28	0
bin	0.3	0
bin	0.32	0
bin	0.34	0
bin	0.36	0
bin	0.38	8
bin	0.4	0
bin	0.42	0
bin	0.44	29
bin	0.46	0
bin	0.48	0
bin	0.5	0
bin	0.52	0
bin	0.54	0
bin	0.56	0
bin	0.58	0
bin	0.6	0
bin	0.62	182
bin	0.64	0
bin	0.66	0
bin	0.68	0
bin	0.7	0
bin	0.72	0
bin	0.74	0
bin	0.76	0
bin	0.78	0
bin	0.8	0
bin	0.82	0
bin	0.84	0
bin	0.86	0
bin	0.88	0
bin	0.9	0
bin	0.92	0
bin	0.94	0
bin	0.96	1
bin	0.98	212
bin	1	7171
bin	1.02	0
statistic Sc1.sensor2.wlan[0].radio bitErrorRate:histogram
field count 0
field mean -nan
field stddev -nan
field min -nan
field max -nan
field sum 0
field sqrsum 0
attr source bitErrorRate(packetSentToUpper)
attr title "Bit error rate, histogram"
bin	-inf	0
bin	0	0
bin	1	0
statistic Sc1.sensor2.wlan[0].radio symbolErrorRate:histogram
field count 0
field mean -nan
field stddev -nan
field min -nan
field max -nan
field sum 0
field sqrsum 0
attr source symbolErrorRate(packetSentToUpper)
attr title "Symbol error rate, histogram"
bin	-inf	0
bin	0	0
bin	1	0
scalar Sc1.sensor2.ipv4.ip packetDropAddressResolutionFailed:count 0
attr interpolationmode none
attr source packetDropReasonIsAddressResolutionFailed(packetDropped)
attr title "packet drop: address resolution failed, count"
scalar Sc1.sensor2.ipv4.ip packetDropAddressResolutionFailed:sum(packetBytes) 0
attr interpolationmode none
attr source packetDropReasonIsAddressResolutionFailed(packetDropped)
attr title "packet drop: address resolution failed, sum(packetBytes)"
scalar Sc1.sensor2.ipv4.ip packetDropHopLimitReached:count 0
attr interpolationmode none
attr source packetDropReasonIsHopLimitReached(packetDropped)
attr title "packet drop: hop limit reached, count"
scalar Sc1.sensor2.ipv4.ip packetDropHopLimitReached:sum(packetBytes) 0
attr interpolationmode none
attr source packetDropReasonIsHopLimitReached(packetDropped)
attr title "packet drop: hop limit reached, sum(packetBytes)"
scalar Sc1.sensor2.ipv4.ip packetDropForwardingDisabled:count 0
attr interpolationmode none
attr source packetDropReasonIsForwardingDisabled(packetDropped)
attr title "packet drop: forwarding disabled, count"
scalar Sc1.sensor2.ipv4.ip packetDropForwardingDisabled:sum(packetBytes) 0
attr interpolationmode none
attr source packetDropReasonIsForwardingDisabled(packetDropped)
attr title "packet drop: forwarding disabled, sum(packetBytes)"
scalar Sc1.sensor2.ipv4.ip packetDropNoInterfaceFound:count 0
attr interpolationmode none
attr source packetDropReasonIsNoInterfaceFound(packetDropped)
attr title "packet drop: no interface found, count"
scalar Sc1.sensor2.ipv4.ip packetDropNoInterfaceFound:sum(packetBytes) 0
attr interpolationmode none
attr source packetDropReasonIsNoInterfaceFound(packetDropped)
attr title "packet drop: no interface found, sum(packetBytes)"
scalar Sc1.sensor2.ipv4.ip packetDropNoRouteFound:count 0
attr interpolationmode none
attr source packetDropReasonIsNoRouteFound(packetDropped)
attr title "packet drop: no route found, count"
scalar Sc1.sensor2.ipv4.ip packetDropNoRouteFound:sum(packetBytes) 0
attr interpolationmode none
attr source packetDropReasonIsNoRouteFound(packetDropped)
attr title "packet drop: no route found, sum(packetBytes)"
scalar Sc1.sensor2.ipv4.ip packetDropUndefined:count 0
attr interpolationmode none
attr source packetDropReasonIsUndefined(packetDropped)
attr title "packet drop: undefined, count"
scalar Sc1.sensor2.ipv4.ip packetDropUndefined:sum(packetBytes) 0
attr interpolationmode none
attr source packetDropReasonIsUndefined(packetDropped)
attr title "packet drop: undefined, sum(packetBytes)"
scalar Sc1.sensor2.udp packetReceived:count 0
attr interpolationmode none
attr source packetReceived
attr title "packets received, count"
scalar Sc1.sensor2.udp packetReceived:sum(packetBytes) 0
attr interpolationmode none
attr source packetReceived
attr title "packets received, sum(packetBytes)"
scalar Sc1.sensor2.udp packetSent:count 63
attr interpolationmode none
attr source packetSent
attr title "packets sent, count"
scalar Sc1.sensor2.udp packetSent:sum(packetBytes) 591129
attr interpolationmode none
attr source packetSent
attr title "packets sent, sum(packetBytes)"
scalar Sc1.sensor2.udp passedUpPk:count 0
attr interpolationmode none
attr source packetSentToUpper
attr title "packets passed up, count"
scalar Sc1.sensor2.udp droppedPkWrongPort:count 0
attr interpolationmode none
attr source packetDropReasonIsNoPortFound(packetDropped)
attr title "packets dropped (wrong port), count"
scalar Sc1.sensor2.udp droppedPkBadChecksum:count 0
attr interpolationmode none
attr source packetDropReasonIsIncorrectlyReceived(packetDropped)
attr title "packets dropped (checksum error), count"
scalar Sc1.sensor2.app[0] "packets sent" 63
scalar Sc1.sensor2.app[0] "packets received" 0
scalar Sc1.sensor2.app[0] packetReceived:count 0
attr interpolationmode none
attr source packetReceived
attr title "packets received, count"
scalar Sc1.sensor2.app[0] packetReceived:sum(packetBytes) 0
attr interpolationmode none
attr source packetReceived
attr title "packets received, sum(packetBytes)"
statistic Sc1.sensor2.app[0] rcvdPkLifetime:stats
field count 0
field mean -nan
field stddev -nan
field min -nan
field max -nan
field sum 0
field sqrsum 0
attr interpolationmode none
attr source dataAge(packetReceived)
attr title "received packet lifetime, stats"
attr unit s
scalar Sc1.sensor2.app[0] packetSent:count 63
attr interpolationmode none
attr source packetSent
attr title "packets sent, count"
scalar Sc1.sensor2.app[0] packetSent:sum(packetBytes) 590625
attr interpolationmode none
attr source packetSent
attr title "packets sent, sum(packetBytes)"
scalar Sc1.ap1.wlan[0].mac rcvdPkFromLl:count 1003013
attr interpolationmode none
attr source packetReceivedFromLower
attr title "packets received from lower layer, count"
scalar Sc1.ap1.wlan[0].mac rcvdPkFromLl:sum(packetBytes) 606682100
attr interpolationmode none
attr source packetReceivedFromLower
attr title "packets received from lower layer, sum(packetBytes)"
scalar Sc1.ap1.wlan[0].mac sentDownPk:count 5002
attr interpolationmode none
attr source packetSentToLower
attr title "packets sent to lower layer, count"
scalar Sc1.ap1.wlan[0].mac sentDownPk:sum(packetBytes) 239230
attr interpolationmode none
attr source packetSentToLower
attr title "packets sent to lower layer, sum(packetBytes)"
scalar Sc1.ap1.wlan[0].mac rcvdPkFromHl:count 0
attr interpolationmode none
attr source packetReceivedFromUpper
attr title "packets received from higher layer, count"
scalar Sc1.ap1.wlan[0].mac rcvdPkFromHl:sum(packetBytes) 0
attr interpolationmode none
attr source packetReceivedFromUpper
attr title "packets received from higher layer, sum(packetBytes)"
scalar Sc1.ap1.wlan[0].mac passedUpPk:count 0
attr interpolationmode none
attr source packetSentToUpper
attr title "packets passed to higher layer, count"
scalar Sc1.ap1.wlan[0].mac passedUpPk:sum(packetBytes) 0
attr interpolationmode none
attr source packetSentToUpper
attr title "packets passed to higher layer, sum(packetBytes)"
scalar Sc1.ap1.wlan[0].mac packetDropIncorrectlyReceived:count 7213
attr interpolationmode none
attr source packetDropReasonIsIncorrectlyReceived(packetDropped)
attr title "packet drop: incorrectly received, count"
scalar Sc1.ap1.wlan[0].mac packetDropIncorrectlyReceived:sum(packetBytes) 6193161
attr interpolationmode none
attr source packetDropReasonIsIncorrectlyReceived(packetDropped)
attr title "packet drop: incorrectly received, sum(packetBytes)"
scalar Sc1.ap1.wlan[0].mac packetDropNotAddressedToUs:count 991541
attr interpolationmode none
attr source packetDropReasonIsNotAddressedToUs(packetDropped)
attr title "packet drop: not addressed to us, count"
scalar Sc1.ap1.wlan[0].mac packetDropNotAddressedToUs:sum(packetBytes) 600292143
attr interpolationmode none
attr source packetDropReasonIsNotAddressedToUs(packetDropped)
attr title "packet drop: not addressed to us, sum(packetBytes)"
scalar Sc1.ap1.wlan[0].mac packetDropQueueOverflow:count 0
attr interpolationmode none
attr source packetDropReasonIsQueueOverflow(packetDropped)
attr title "packet drop: queue overflow, count"
scalar Sc1.ap1.wlan[0].mac packetDropQueueOverflow:sum(packetBytes) 0
attr interpolationmode none
attr source packetDropReasonIsQueueOverflow(packetDropped)
attr title "packet drop: queue overflow, sum(packetBytes)"
scalar Sc1.ap1.wlan[0].mac packetDropRetryLimitReached:count 0
attr interpolationmode none
attr source packetDropReasonIsRetryLimitReached(packetDropped)
attr title "packet drop: retry limit reached, count"
scalar Sc1.ap1.wlan[0].mac packetDropRetryLimitReached:sum(packetBytes) 0
attr interpolationmode none
attr source packetDropReasonIsRetryLimitReached(packetDropped)
attr title "packet drop: retry limit reached, sum(packetBytes)"
scalar Sc1.ap1.wlan[0].mac linkBroken:count 0
attr interpolationmode none
attr source linkBroken
attr title "link break, count"
statistic Sc1.ap1.wlan[0].radio radioChannel:histogram
field count 1
field mean 0
field stddev -nan
field min 0
field max 0
field sum 0
field sqrsum 0
attr interpolationmode sample-hold
attr source radioChannelChanged
attr title "Radio channel, histogram"
bin	-inf	0
bin	-0.5	0
bin	-0.48	0
bin	-0.46	0
bin	-0.44	0
bin	-0.42	0
bin	-0.4	0
bin	-0.38	0
bin	-0.36	0
bin	-0.34	0
bin	-0.32	0
bin	-0.3	0
bin	-0.28	0
bin	-0.26	0
bin	-0.24	0
bin	-0.22	0
bin	-0.2	0
bin	-0.18	0
bin	-0.16	0
bin	-0.14	0
bin	-0.12	0
bin	-0.1	0
bin	-0.08	0
bin	-0.06	0
bin	-0.04	0
bin	-0.02	0
bin	0	1
bin	0.02	0
bin	0.04	0
bin	0.06	0
bin	0.08	0
bin	0.1	0
bin	0.12	0
bin	0.14	0
bin	0.16	0
bin	0.18	0
bin	0.2	0
bin	0.22	0
bin	0.24	0
bin	0.26	0
bin	0.28	0
bin	0.3	0
bin	0.32	0
bin	0.34	0
bin	0.36	0
bin	0.38	0
bin	0.4	0
bin	0.42	0
bin	0.44	0
bin	0.46	0
bin	0.48	0
bin	0.5	0
scalar Sc1.ap1.wlan[0].radio radioMode:count 10007
attr interpolationmode sample-hold
attr source radioModeChanged
attr title "Radio mode, count"
scalar Sc1.ap1.wlan[0].radio receptionState:count 2019220
attr interpolationmode sample-hold
attr source receptionStateChanged
attr title "Radio reception state, count"
scalar Sc1.ap1.wlan[0].radio transmissionState:count 20008
attr interpolationmode sample-hold
attr source transmissionStateChanged
attr title "Radio transmission state, count"
statistic Sc1.ap1.wlan[0].radio minSnir:histogram
field count 1003013
field mean 707.2668662013
field stddev 466.77389277032
field min 0.19180403321787
field max 8758.9789932269
field sum 709397861.26916
field sqrsum 720267717337.03
attr source minimumSnir(packetSentToUpper)
attr title "Min SNIR, histogram"
bin	-inf	0
bin	0	7214
bin	200	105425
bin	400	288346
bin	600	500023
bin	800	0
bin	1000	0
bin	1200	0
bin	1400	0
bin	1600	0
bin	1800	0
bin	2000	101959
bin	2200	0
bin	2400	0
bin	2600	0
bin	2800	0
bin	3000	0
bin	3200	0
bin	3400	0
bin	3600	0
bin	3800	0
bin	4000	0
bin	4200	0
bin	4400	0
bin	4600	0
bin	4800	0
bin	5000	0
bin	5200	0
bin	5400	0
bin	5600	0
bin	5800	0
bin	6000	0
bin	6200	0
bin	6400	0
bin	6600	0
bin	6800	0
bin	7000	0
bin	7200	0
bin	7400	0
bin	7600	0
bin	7800	0
bin	8000	0
bin	8200	0
bin	8400	0
bin	8600	46
bin	8800	0
bin	9000	0
bin	9200	0
bin	9400	0
bin	9600	0
bin	9800	0
bin	10000	0
bin	10200	0
bin	10400	0
bin	10600	0
bin	10800	0
bin	11000	0
statistic Sc1.ap1.wlan[0].radio packetErrorRate:histogram
field count 1003013
field mean 0.0071913121797981
field stddev 0.08449605995113
field min 0
field max 1
field sum 7212.9796033958
field sqrsum 7212.9593627911
attr source packetErrorRate(packetSentToUpper)
attr title "Packet error rate, histogram"
bin	-inf	0
bin	0	995833
bin	1	7180
bin	2	0
statistic Sc1.ap1.wlan[0].radio bitErrorRate:histogram
field count 0
field mean -nan
field stddev -nan
field min -nan
field max -nan
field sum 0
field sqrsum 0
attr source bitErrorRate(packetSentToUpper)
attr title "Bit error rate, histogram"
bin	-inf	0
bin	0	0
bin	1	0
statistic Sc1.ap1.wlan[0].radio symbolErrorRate:histogram
field count 0
field mean -nan
field stddev -nan
field min -nan
field max -nan
field sum 0
field sqrsum 0
attr source symbolErrorRate(packetSentToUpper)
attr title "Symbol error rate, histogram"
bin	-inf	0
bin	0	0
bin	1	0
scalar Sc1.ap1.energyStorage residualEnergyCapacity:last 794.6336357662
attr interpolationmode linear
attr source residualEnergyCapacityChanged
attr title "Residual energy capacity, last"
scalar Sc1.sink1.lo[0].lo rcvdPkFromHl:count 0
attr interpolationmode none
attr source packetReceivedFromUpper
attr title "packets received from higher layer, count"
scalar Sc1.sink1.lo[0].lo rcvdPkFromHl:sum(packetBytes) 0
attr interpolationmode none
attr source packetReceivedFromUpper
attr title "packets received from higher layer, sum(packetBytes)"
scalar Sc1.sink1.lo[0].lo passedUpPk:count 0
attr interpolationmode none
attr source packetSentToUpper
attr title "packets passed to higher layer, count"
scalar Sc1.sink1.lo[0].lo passedUpPk:sum(packetBytes) 0
attr interpolationmode none
attr source packetSentToUpper
attr title "packets passed to higher layer, sum(packetBytes)"
scalar Sc1.sink1.wlan[0].agent dropConfirm:count 0
attr title "dropped confirms, count"
scalar Sc1.sink1.wlan[0].agent acceptConfirm:count 18
attr title "accepted confirms, count"
scalar Sc1.sink1.wlan[0].agent sentRequest:count 18
attr title "sent requests, count"
scalar Sc1.sink1.wlan[0].mac rcvdPkFromLl:count 1007959
attr interpolationmode none
attr source packetReceivedFromLower
attr title "packets received from lower layer, count"
scalar Sc1.sink1.wlan[0].mac rcvdPkFromLl:sum(packetBytes) 606935256
attr interpolationmode none
attr source packetReceivedFromLower
attr title "packets received from lower layer, sum(packetBytes)"
scalar Sc1.sink1.wlan[0].mac sentDownPk:count 50
attr interpolationmode none
attr source packetSentToLower
attr title "packets sent to lower layer, count"
scalar Sc1.sink1.wlan[0].mac sentDownPk:sum(packetBytes) 1200
attr interpolationmode none
attr source packetSentToLower
attr title "packets sent to lower layer, sum(packetBytes)"
scalar Sc1.sink1.wlan[0].mac rcvdPkFromHl:count 0
attr interpolationmode none
attr source packetReceivedFromUpper
attr title "packets received from higher layer, count"
scalar Sc1.sink1.wlan[0].mac rcvdPkFromHl:sum(packetBytes) 0
attr interpolationmode none
attr source packetReceivedFromUpper
attr title "packets received from higher layer, sum(packetBytes)"
scalar Sc1.sink1.wlan[0].mac passedUpPk:count 0
attr interpolationmode none
attr source packetSentToUpper
attr title "packets passed to higher layer, count"
scalar Sc1.sink1.wlan[0].mac passedUpPk:sum(packetBytes) 0
attr interpolationmode none
attr source packetSentToUpper
attr title "packets passed to higher layer, sum(packetBytes)"
scalar Sc1.sink1.wlan[0].mac packetDropIncorrectlyReceived:count 7546
attr interpolationmode none
attr source packetDropReasonIsIncorrectlyReceived(packetDropped)
attr title "packet drop: incorrectly received, count"
scalar Sc1.sink1.wlan[0].mac packetDropIncorrectlyReceived:sum(packetBytes) 6233303
attr interpolationmode none
attr source packetDropReasonIsIncorrectlyReceived(packetDropped)
attr title "packet drop: incorrectly received, sum(packetBytes)"
scalar Sc1.sink1.wlan[0].mac packetDropNotAddressedToUs:count 991816
attr interpolationmode none
attr source packetDropReasonIsNotAddressedToUs(packetDropped)
attr title "packet drop: not addressed to us, count"
scalar Sc1.sink1.wlan[0].mac packetDropNotAddressedToUs:sum(packetBytes) 600292245
attr interpolationmode none
attr source packetDropReasonIsNotAddressedToUs(packetDropped)
attr title "packet drop: not addressed to us, sum(packetBytes)"
scalar Sc1.sink1.wlan[0].mac packetDropQueueOverflow:count 0
attr interpolationmode none
attr source packetDropReasonIsQueueOverflow(packetDropped)
attr title "packet drop: queue overflow, count"
scalar Sc1.sink1.wlan[0].mac packetDropQueueOverflow:sum(packetBytes) 0
attr interpolationmode none
attr source packetDropReasonIsQueueOverflow(packetDropped)
attr title "packet drop: queue overflow, sum(packetBytes)"
scalar Sc1.sink1.wlan[0].mac packetDropRetryLimitReached:count 0
attr interpolationmode none
attr source packetDropReasonIsRetryLimitReached(packetDropped)
attr title "packet drop: retry limit reached, count"
scalar Sc1.sink1.wlan[0].mac packetDropRetryLimitReached:sum(packetBytes) 0
attr interpolationmode none
attr source packetDropReasonIsRetryLimitReached(packetDropped)
attr title "packet drop: retry limit reached, sum(packetBytes)"
scalar Sc1.sink1.wlan[0].mac linkBroken:count 0
attr interpolationmode none
attr source linkBroken
attr title "link break, count"
statistic Sc1.sink1.wlan[0].radio radioChannel:histogram
field count 19
field mean 0
field stddev 0
field min 0
field max 0
field sum 0
field sqrsum 0
attr interpolationmode sample-hold
attr source radioChannelChanged
attr title "Radio channel, histogram"
bin	-inf	0
bin	-0.5	0
bin	-0.48	0
bin	-0.46	0
bin	-0.44	0
bin	-0.42	0
bin	-0.4	0
bin	-0.38	0
bin	-0.36	0
bin	-0.34	0
bin	-0.32	0
bin	-0.3	0
bin	-0.28	0
bin	-0.26	0
bin	-0.24	0
bin	-0.22	0
bin	-0.2	0
bin	-0.18	0
bin	-0.16	0
bin	-0.14	0
bin	-0.12	0
bin	-0.1	0
bin	-0.08	0
bin	-0.06	0
bin	-0.04	0
bin	-0.02	0
bin	0	19
bin	0.02	0
bin	0.04	0
bin	0.06	0
bin	0.08	0
bin	0.1	0
bin	0.12	0
bin	0.14	0
bin	0.16	0
bin	0.18	0
bin	0.2	0
bin	0.22	0
bin	0.24	0
bin	0.26	0
bin	0.28	0
bin	0.3	0
bin	0.32	0
bin	0.34	0
bin	0.36	0
bin	0.38	0
bin	0.4	0
bin	0.42	0
bin	0.44	0
bin	0.46	0
bin	0.48	0
bin	0.5	0
scalar Sc1.sink1.wlan[0].radio radioMode:count 103
attr interpolationmode sample-hold
attr source radioModeChanged
attr title "Radio mode, count"
scalar Sc1.sink1.wlan[0].radio receptionState:count 2019186
attr interpolationmode sample-hold
attr source receptionStateChanged
attr title "Radio reception state, count"
scalar Sc1.sink1.wlan[0].radio transmissionState:count 200
attr interpolationmode sample-hold
attr source transmissionStateChanged
attr title "Radio transmission state, count"
statistic Sc1.sink1.wlan[0].radio minSnir:histogram
field count 1007959
field mean 1197.153904752
field stddev 777.53885726815
field min 0.051633995167299
field max 8758.9789932269
field sum 1206682052.6799
field sqrsum 2053961947317.9
attr source minimumSnir(packetSentToUpper)
attr title "Min SNIR, histogram"
bin	-inf	0
bin	0	7915
bin	200	0
bin	400	105425
bin	600	192128
bin	800	96800
bin	1000	1226
bin	1200	498211
bin	1400	0
bin	1600	0
bin	1800	0
bin	2000	0
bin	2200	0
bin	2400	0
bin	2600	101957
bin	2800	0
bin	3000	0
bin	3200	0
bin	3400	0
bin	3600	0
bin	3800	0
bin	4000	0
bin	4200	0
bin	4400	0
bin	4600	0
bin	4800	0
bin	5000	0
bin	5200	0
bin	5400	0
bin	5600	0
bin	5800	0
bin	6000	0
bin	6200	0
bin	6400	0
bin	6600	0
bin	6800	0
bin	7000	0
bin	7200	0
bin	7400	0
bin	7600	0
bin	7800	0
bin	8000	0
bin	8200	0
bin	8400	0
bin	8600	4297
bin	8800	0
bin	9000	0
bin	9200	0
bin	9400	0
bin	9600	0
bin	9800	0
bin	10000	0
bin	10200	0
bin	10400	0
bin	10600	0
bin	10800	0
bin	11000	0
statistic Sc1.sink1.wlan[0].radio packetErrorRate:histogram
field count 1007959
field mean 0.0074816979692234
field stddev 0.086154355952839
field min 0
field max 1
field sum 7541.2448033604
field sqrsum 7538.0632019083
attr source packetErrorRate(packetSentToUpper)
attr title "Packet error rate, histogram"
bin	-inf	0
bin	0	1000461
bin	1	7498
bin	2	0
statistic Sc1.sink1.wlan[0].radio bitErrorRate:histogram
field count 0
field mean -nan
field stddev -nan
field min -nan
field max -nan
field sum 0
field sqrsum 0
attr source bitErrorRate(packetSentToUpper)
attr title "Bit error rate, histogram"
bin	-inf	0
bin	0	0
bin	1	0
statistic Sc1.sink1.wlan[0].radio symbolErrorRate:histogram
field count 0
field mean -nan
field stddev -nan
field min -nan
field max -nan
field sum 0
field sqrsum 0
attr source symbolErrorRate(packetSentToUpper)
attr title "Symbol error rate, histogram"
bin	-inf	0
bin	0	0
bin	1	0
scalar Sc1.sink1.ipv4.ip packetDropAddressResolutionFailed:count 0
attr interpolationmode none
attr source packetDropReasonIsAddressResolutionFailed(packetDropped)
attr title "packet drop: address resolution failed, count"
scalar Sc1.sink1.ipv4.ip packetDropAddressResolutionFailed:sum(packetBytes) 0
attr interpolationmode none
attr source packetDropReasonIsAddressResolutionFailed(packetDropped)
attr title "packet drop: address resolution failed, sum(packetBytes)"
scalar Sc1.sink1.ipv4.ip packetDropHopLimitReached:count 0
attr interpolationmode none
attr source packetDropReasonIsHopLimitReached(packetDropped)
attr title "packet drop: hop limit reached, count"
scalar Sc1.sink1.ipv4.ip packetDropHopLimitReached:sum(packetBytes) 0
attr interpolationmode none
attr source packetDropReasonIsHopLimitReached(packetDropped)
attr title "packet drop: hop limit reached, sum(packetBytes)"
scalar Sc1.sink1.ipv4.ip packetDropForwardingDisabled:count 0
attr interpolationmode none
attr source packetDropReasonIsForwardingDisabled(packetDropped)
attr title "packet drop: forwarding disabled, count"
scalar Sc1.sink1.ipv4.ip packetDropForwardingDisabled:sum(packetBytes) 0
attr interpolationmode none
attr source packetDropReasonIsForwardingDisabled(packetDropped)
attr title "packet drop: forwarding disabled, sum(packetBytes)"
scalar Sc1.sink1.ipv4.ip packetDropNoInterfaceFound:count 0
attr interpolationmode none
attr source packetDropReasonIsNoInterfaceFound(packetDropped)
attr title "packet drop: no interface found, count"
scalar Sc1.sink1.ipv4.ip packetDropNoInterfaceFound:sum(packetBytes) 0
attr interpolationmode none
attr source packetDropReasonIsNoInterfaceFound(packetDropped)
attr title "packet drop: no interface found, sum(packetBytes)"
scalar Sc1.sink1.ipv4.ip packetDropNoRouteFound:count 0
attr interpolationmode none
attr source packetDropReasonIsNoRouteFound(packetDropped)
attr title "packet drop: no route found, count"
scalar Sc1.sink1.ipv4.ip packetDropNoRouteFound:sum(packetBytes) 0
attr interpolationmode none
attr source packetDropReasonIsNoRouteFound(packetDropped)
attr title "packet drop: no route found, sum(packetBytes)"
scalar Sc1.sink1.ipv4.ip packetDropUndefined:count 0
attr interpolationmode none
attr source packetDropReasonIsUndefined(packetDropped)
attr title "packet drop: undefined, count"
scalar Sc1.sink1.ipv4.ip packetDropUndefined:sum(packetBytes) 0
attr interpolationmode none
attr source packetDropReasonIsUndefined(packetDropped)
attr title "packet drop: undefined, sum(packetBytes)"
scalar Sc1.sink1.udp packetReceived:count 0
attr interpolationmode none
attr source packetReceived
attr title "packets received, count"
scalar Sc1.sink1.udp packetReceived:sum(packetBytes) 0
attr interpolationmode none
attr source packetReceived
attr title "packets received, sum(packetBytes)"
scalar Sc1.sink1.udp packetSent:count 0
attr interpolationmode none
attr source packetSent
attr title "packets sent, count"
scalar Sc1.sink1.udp packetSent:sum(packetBytes) 0
attr interpolationmode none
attr source packetSent
attr title "packets sent, sum(packetBytes)"
scalar Sc1.sink1.udp passedUpPk:count 0
attr interpolationmode none
attr source packetSentToUpper
attr title "packets passed up, count"
scalar Sc1.sink1.udp droppedPkWrongPort:count 0
attr interpolationmode none
attr source packetDropReasonIsNoPortFound(packetDropped)
attr title "packets dropped (wrong port), count"
scalar Sc1.sink1.udp droppedPkBadChecksum:count 0
attr interpolationmode none
attr source packetDropReasonIsIncorrectlyReceived(packetDropped)
attr title "packets dropped (checksum error), count"
scalar Sc1.sink1.app[0] packetReceived:count 0
attr interpolationmode none
attr source packetReceived
attr title "packets received, count"
scalar Sc1.sink1.app[0] packetReceived:sum(packetBytes) 0
attr interpolationmode none
attr source packetReceived
attr title "packets received, sum(packetBytes)"
statistic Sc1.sink1.app[0] endToEndDelay:histogram
field count 0
field mean -nan
field stddev -nan
field min -nan
field max -nan
field sum 0
field sqrsum 0
attr interpolationmode none
attr source dataAge(packetReceived)
attr title "end-to-end delay, histogram"
attr unit s
bin	-inf	0
bin	0	0
bin	1	0
statistic Sc1.sink1.app[0] jitter:histogram
field count 0
field mean -nan
field stddev -nan
field min -nan
field max -nan
field sum 0
field sqrsum 0
attr interpolationmode none
attr source jitter(packetReceived)
attr title "jitter, histogram"
attr unit s
bin	-inf	0
bin	0	0
bin	1	0
scalar Sc1.sink2.lo[0].lo rcvdPkFromHl:count 0
attr interpolationmode none
attr source packetReceivedFromUpper
attr title "packets received from higher layer, count"
scalar Sc1.sink2.lo[0].lo rcvdPkFromHl:sum(packetBytes) 0
attr interpolationmode none
attr source packetReceivedFromUpper
attr title "packets received from higher layer, sum(packetBytes)"
scalar Sc1.sink2.lo[0].lo passedUpPk:count 0
attr interpolationmode none
attr source packetSentToUpper
attr title "packets passed to higher layer, count"
scalar Sc1.sink2.lo[0].lo passedUpPk:sum(packetBytes) 0
attr interpolationmode none
attr source packetSentToUpper
attr title "packets passed to higher layer, sum(packetBytes)"
scalar Sc1.sink2.wlan[0].agent dropConfirm:count 6
attr title "dropped confirms, count"
scalar Sc1.sink2.wlan[0].agent acceptConfirm:count 366
attr title "accepted confirms, count"
scalar Sc1.sink2.wlan[0].agent sentRequest:count 372
attr title "sent requests, count"
scalar Sc1.sink2.wlan[0].mac rcvdPkFromLl:count 821039
attr interpolationmode none
attr source packetReceivedFromLower
attr title "packets received from lower layer, count"
scalar Sc1.sink2.wlan[0].mac rcvdPkFromLl:sum(packetBytes) 605276343
attr interpolationmode none
attr source packetReceivedFromLower
attr title "packets received from lower layer, sum(packetBytes)"
scalar Sc1.sink2.wlan[0].mac sentDownPk:count 191796
attr interpolationmode none
attr source packetSentToLower
attr title "packets sent to lower layer, count"
scalar Sc1.sink2.wlan[0].mac sentDownPk:sum(packetBytes) 2767258
attr interpolationmode none
attr source packetSentToLower
attr title "packets sent to lower layer, sum(packetBytes)"
scalar Sc1.sink2.wlan[0].mac rcvdPkFromHl:count 934
attr interpolationmode none
attr source packetReceivedFromUpper
attr title "packets received from higher layer, count"
scalar Sc1.sink2.wlan[0].mac rcvdPkFromHl:sum(packetBytes) 59776
attr interpolationmode none
attr source packetReceivedFromUpper
attr title "packets received from higher layer, sum(packetBytes)"
scalar Sc1.sink2.wlan[0].mac passedUpPk:count 31770
attr interpolationmode none
attr source packetSentToUpper
attr title "packets passed to higher layer, count"
scalar Sc1.sink2.wlan[0].mac passedUpPk:sum(packetBytes) 149304687
attr interpolationmode none
attr source packetSentToUpper
attr title "packets passed to higher layer, sum(packetBytes)"
scalar Sc1.sink2.wlan[0].mac packetDropIncorrectlyReceived:count 7177
attr interpolationmode none
attr source packetDropReasonIsIncorrectlyReceived(packetDropped)
attr title "packet drop: incorrectly received, count"
scalar Sc1.sink2.wlan[0].mac packetDropIncorrectlyReceived:sum(packetBytes) 5951789
attr interpolationmode none
attr source packetDropReasonIsIncorrectlyReceived(packetDropped)
attr title "packet drop: incorrectly received, sum(packetBytes)"
scalar Sc1.sink2.wlan[0].mac packetDropNotAddressedToUs:count 611188
attr interpolationmode none
attr source packetDropReasonIsNotAddressedToUs(packetDropped)
attr title "packet drop: not addressed to us, count"
scalar Sc1.sink2.wlan[0].mac packetDropNotAddressedToUs:sum(packetBytes) 369981353
attr interpolationmode none
attr source packetDropReasonIsNotAddressedToUs(packetDropped)
attr title "packet drop: not addressed to us, sum(packetBytes)"
scalar Sc1.sink2.wlan[0].mac packetDropQueueOverflow:count 64
attr interpolationmode none
attr source packetDropReasonIsQueueOverflow(packetDropped)
attr title "packet drop: queue overflow, count"
scalar Sc1.sink2.wlan[0].mac packetDropQueueOverflow:sum(packetBytes) 5888
attr interpolationmode none
attr source packetDropReasonIsQueueOverflow(packetDropped)
attr title "packet drop: queue overflow, sum(packetBytes)"
scalar Sc1.sink2.wlan[0].mac packetDropRetryLimitReached:count 0
attr interpolationmode none
attr source packetDropReasonIsRetryLimitReached(packetDropped)
attr title "packet drop: retry limit reached, count"
scalar Sc1.sink2.wlan[0].mac packetDropRetryLimitReached:sum(packetBytes) 0
attr interpolationmode none
attr source packetDropReasonIsRetryLimitReached(packetDropped)
attr title "packet drop: retry limit reached, sum(packetBytes)"
scalar Sc1.sink2.wlan[0].mac linkBroken:count 0
attr interpolationmode none
attr source linkBroken
attr title "link break, count"
statistic Sc1.sink2.wlan[0].radio radioChannel:histogram
field count 373
field mean 0
field stddev 0
field min 0
field max 0
field sum 0
field sqrsum 0
attr interpolationmode sample-hold
attr source radioChannelChanged
attr title "Radio channel, histogram"
bin	-inf	0
bin	-0.5	0
bin	-0.48	0
bin	-0.46	0
bin	-0.44	0
bin	-0.42	0
bin	-0.4	0
bin	-0.38	0
bin	-0.36	0
bin	-0.34	0
bin	-0.32	0
bin	-0.3	0
bin	-0.28	0
bin	-0.26	0
bin	-0.24	0
bin	-0.22	0
bin	-0.2	0
bin	-0.18	0
bin	-0.16	0
bin	-0.14	0
bin	-0.12	0
bin	-0.1	0
bin	-0.08	0
bin	-0.06	0
bin	-0.04	0
bin	-0.02	0
bin	0	373
bin	0.02	0
bin	0.04	0
bin	0.06	0
bin	0.08	0
bin	0.1	0
bin	0.12	0
bin	0.14	0
bin	0.16	0
bin	0.18	0
bin	0.2	0
bin	0.22	0
bin	0.24	0
bin	0.26	0
bin	0.28	0
bin	0.3	0
bin	0.32	0
bin	0.34	0
bin	0.36	0
bin	0.38	0
bin	0.4	0
bin	0.42	0
bin	0.44	0
bin	0.46	0
bin	0.48	0
bin	0.5	0
scalar Sc1.sink2.wlan[0].radio radioMode:count 383595
attr interpolationmode sample-hold
attr source radioModeChanged
attr title "Radio mode, count"
scalar Sc1.sink2.wlan[0].radio receptionState:count 2030305
attr interpolationmode sample-hold
attr source receptionStateChanged
attr title "Radio reception state, count"
scalar Sc1.sink2.wlan[0].radio transmissionState:count 767184
attr interpolationmode sample-hold
attr source transmissionStateChanged
attr title "Radio transmission state, count"
statistic Sc1.sink2.wlan[0].radio minSnir:histogram
field count 821039
field mean 5581.6480529597
field stddev 3524.5880337156
field min 0.050562188253435
field max 8342.7093995517
field sum 4582750735.754
field sqrsum 35778827567697
attr source minimumSnir(packetSentToUpper)
attr title "Min SNIR, histogram"
bin	-inf	0
bin	0	7741
bin	200	0
bin	400	211626
bin	600	2521
bin	800	0
bin	1000	3063
bin	1200	0
bin	1400	0
bin	1600	0
bin	1800	1223
bin	2000	0
bin	2200	0
bin	2400	0
bin	2600	0
bin	2800	0
bin	3000	0
bin	3200	96782
bin	3400	0
bin	3600	0
bin	3800	0
bin	4000	0
bin	4200	0
bin	4400	0
bin	4600	0
bin	4800	0
bin	5000	0
bin	5200	0
bin	5400	0
bin	5600	0
bin	5800	0
bin	6000	0
bin	6200	0
bin	6400	0
bin	6600	0
bin	6800	0
bin	7000	0
bin	7200	0
bin	7400	0
bin	7600	0
bin	7800	0
bin	8000	0
bin	8200	498083
bin	8400	0
bin	8600	0
bin	8800	0
bin	9000	0
bin	9200	0
bin	9400	0
bin	9600	0
bin	9800	0
bin	10000	0
bin	10200	0
bin	10400	0
bin	10600	0
statistic Sc1.sink2.wlan[0].radio packetErrorRate:histogram
field count 821039
field mean 0.0087400680481627
field stddev 0.092267278156501
field min 0
field max 1
field sum 7175.9367301954
field sqrsum 7052.4204365686
attr source packetErrorRate(packetSentToUpper)
attr title "Packet error rate, histogram"
bin	-inf	0
bin	-0.5	0
bin	-0.48	0
bin	-0.46	0
bin	-0.44	0
bin	-0.42	0
bin	-0.4	0
bin	-0.38	0
bin	-0.36	0
bin	-0.34	0
bin	-0.32	0
bin	-0.3	0
bin	-0.28	0
bin	-0.26	0
bin	-0.24	0
bin	-0.22	0
bin	-0.2	0
bin	-0.18	0
bin	-0.16	0
bin	-0.14	0
bin	-0.12	0
bin	-0.1	0
bin	-0.08	0
bin	-0.06	0
bin	-0.04	0
bin	-0.02	0
bin	0	813400
bin	0.02	239
bin	0.04	0
bin	0.06	0
bin	0.08	0
bin	0.1	0
bin	0.12	0
bin	0.14	0
bin	0.16	0
bin	0.18	0
bin	0.2	0
bin	0.22	0
bin	0.24	0
bin	0.26	0
bin	0.28	0
bin	0.3	0
bin	0.32	6
bin	0.34	0
bin	0.36	19
bin	0.38	0
bin	0.4	25
bin	0.42	0
bin	0.44	0
bin	0.46	205
bin	0.48	0
bin	0.5	0
bin	0.52	0
bin	0.54	0
bin	0.56	210
bin	0.58	0
bin	0.6	0
bin	0.62	0
bin	0.64	0
bin	0.66	0
bin	0.68	0
bin	0.7	0
bin	0.72	0
bin	0.74	0
bin	0.76	0
bin	0.78	0
bin	0.8	0
bin	0.82	0
bin	0.84	0
bin	0.86	0
bin	0.88	0
bin	0.9	0
bin	0.92	0
bin	0.94	0
bin	0.96	0
bin	0.98	229
bin	1	6706
bin	1.02	0
statistic Sc1.sink2.wlan[0].radio bitErrorRate:histogram
field count 0
field mean -nan
field stddev -nan
field min -nan
field max -nan
field sum 0
field sqrsum 0
attr source bitErrorRate(packetSentToUpper)
attr title "Bit error rate, histogram"
bin	-inf	0
bin	0	0
bin	1	0
statistic Sc1.sink2.wlan[0].radio symbolErrorRate:histogram
field count 0
field mean -nan
field stddev -nan
field min -nan
field max -nan
field sum 0
field sqrsum 0
attr source symbolErrorRate(packetSentToUpper)
attr title "Symbol error rate, histogram"
bin	-inf	0
bin	0	0
bin	1	0
scalar Sc1.sink2.ipv4.ip packetDropAddressResolutionFailed:count 0
attr interpolationmode none
attr source packetDropReasonIsAddressResolutionFailed(packetDropped)
attr title "packet drop: address resolution failed, count"
scalar Sc1.sink2.ipv4.ip packetDropAddressResolutionFailed:sum(packetBytes) 0
attr interpolationmode none
attr source packetDropReasonIsAddressResolutionFailed(packetDropped)
attr title "packet drop: address resolution failed, sum(packetBytes)"
scalar Sc1.sink2.ipv4.ip packetDropHopLimitReached:count 0
attr interpolationmode none
attr source packetDropReasonIsHopLimitReached(packetDropped)
attr title "packet drop: hop limit reached, count"
scalar Sc1.sink2.ipv4.ip packetDropHopLimitReached:sum(packetBytes) 0
attr interpolationmode none
attr source packetDropReasonIsHopLimitReached(packetDropped)
attr title "packet drop: hop limit reached, sum(packetBytes)"
scalar Sc1.sink2.ipv4.ip packetDropForwardingDisabled:count 0
attr interpolationmode none
attr source packetDropReasonIsForwardingDisabled(packetDropped)
attr title "packet drop: forwarding disabled, count"
scalar Sc1.sink2.ipv4.ip packetDropForwardingDisabled:sum(packetBytes) 0
attr interpolationmode none
attr source packetDropReasonIsForwardingDisabled(packetDropped)
attr title "packet drop: forwarding disabled, sum(packetBytes)"
scalar Sc1.sink2.ipv4.ip packetDropNoInterfaceFound:count 0
attr interpolationmode none
attr source packetDropReasonIsNoInterfaceFound(packetDropped)
attr title "packet drop: no interface found, count"
scalar Sc1.sink2.ipv4.ip packetDropNoInterfaceFound:sum(packetBytes) 0
attr interpolationmode none
attr source packetDropReasonIsNoInterfaceFound(packetDropped)
attr title "packet drop: no interface found, sum(packetBytes)"
scalar Sc1.sink2.ipv4.ip packetDropNoRouteFound:count 0
attr interpolationmode none
attr source packetDropReasonIsNoRouteFound(packetDropped)
attr title "packet drop: no route found, count"
scalar Sc1.sink2.ipv4.ip packetDropNoRouteFound:sum(packetBytes) 0
attr interpolationmode none
attr source packetDropReasonIsNoRouteFound(packetDropped)
attr title "packet drop: no route found, sum(packetBytes)"
scalar Sc1.sink2.ipv4.ip packetDropUndefined:count 0
attr interpolationmode none
attr source packetDropReasonIsUndefined(packetDropped)
attr title "packet drop: undefined, count"
scalar Sc1.sink2.ipv4.ip packetDropUndefined:sum(packetBytes) 0
attr interpolationmode none
attr source packetDropReasonIsUndefined(packetDropped)
attr title "packet drop: undefined, sum(packetBytes)"
scalar Sc1.sink2.udp packetReceived:count 14618
attr interpolationmode none
attr source packetReceived
attr title "packets received, count"
scalar Sc1.sink2.udp packetReceived:sum(packetBytes) 137160694
attr interpolationmode none
attr source packetReceived
attr title "packets received, sum(packetBytes)"
scalar Sc1.sink2.udp packetSent:count 0
attr interpolationmode none
attr source packetSent
attr title "packets sent, count"
scalar Sc1.sink2.udp packetSent:sum(packetBytes) 0
attr interpolationmode none
attr source packetSent
attr title "packets sent, sum(packetBytes)"
scalar Sc1.sink2.udp passedUpPk:count 14618
attr interpolationmode none
attr source packetSentToUpper
attr title "packets passed up, count"
scalar Sc1.sink2.udp droppedPkWrongPort:count 0
attr interpolationmode none
attr source packetDropReasonIsNoPortFound(packetDropped)
attr title "packets dropped (wrong port), count"
scalar Sc1.sink2.udp droppedPkBadChecksum:count 0
attr interpolationmode none
attr source packetDropReasonIsIncorrectlyReceived(packetDropped)
attr title "packets dropped (checksum error), count"
scalar Sc1.sink2.app[0] packetReceived:count 14618
attr interpolationmode none
attr source packetReceived
attr title "packets received, count"
scalar Sc1.sink2.app[0] packetReceived:sum(packetBytes) 137043750
attr interpolationmode none
attr source packetReceived
attr title "packets received, sum(packetBytes)"
statistic Sc1.sink2.app[0] endToEndDelay:histogram
field count 14618
field mean 1.3840324322575
field stddev 1.4701234799933
field min 0.007485803174
field max 8.689455937087
field sum 20231.78609474
field sqrsum 59592.630067251
attr interpolationmode none
attr source dataAge(packetReceived)
attr title "end-to-end delay, histogram"
attr unit s
bin	-inf	0
bin	0	449
bin	0.1	670
bin	0.2	856
bin	0.3	1028
bin	0.4	1042
bin	0.5	885
bin	0.6	838
bin	0.7	803
bin	0.8	833
bin	0.9	877
bin	1	512
bin	1.1	540
bin	1.2	472
bin	1.3	360
bin	1.4	320
bin	1.5	254
bin	1.6	224
bin	1.7	210
bin	1.8	218
bin	1.9	237
bin	2	186
bin	2.1	159
bin	2.2	153
bin	2.3	133
bin	2.4	153
bin	2.5	126
bin	2.6	101
bin	2.7	119
bin	2.8	130
bin	2.9	130
bin	3	88
bin	3.1	71
bin	3.2	79
bin	3.3	73
bin	3.4	58
bin	3.5	44
bin	3.6	45
bin	3.7	43
bin	3.8	41
bin	3.9	45
bin	4	48
bin	4.1	60
bin	4.2	31
bin	4.3	28
bin	4.4	30
bin	4.5	42
bin	4.6	26
bin	4.7	28
bin	4.8	40
bin	4.9	37
bin	5	36
bin	5.1	41
bin	5.2	25
bin	5.3	23
bin	5.4	24
bin	5.5	20
bin	5.6	30
bin	5.7	46
bin	5.8	44
bin	5.9	23
bin	6	21
bin	6.1	10
bin	6.2	6
bin	6.3	10
bin	6.4	12
bin	6.5	8
bin	6.6	20
bin	6.7	16
bin	6.8	15
bin	6.9	16
bin	7	14
bin	7.1	16
bin	7.2	10
bin	7.3	15
bin	7.4	17
bin	7.5	14
bin	7.6	12
bin	7.7	15
bin	7.8	14
bin	7.9	12
bin	8	11
bin	8.1	11
bin	8.2	15
bin	8.3	8
bin	8.4	10
bin	8.5	2
bin	8.6	1
bin	8.7	0
statistic Sc1.sink2.app[0] jitter:histogram
field count 14617
field mean 0.41402515573596
field stddev 0.91559868835892
field min 0.000153021656
field max 8.000293021656
field sum 6051.8057013925
field sqrsum 14758.498921952
attr interpolationmode none
attr source jitter(packetReceived)
attr title "jitter, histogram"
attr unit s
bin	-inf	0
bin	0	11102
bin	0.1	3
bin	0.2	4
bin	0.3	1
bin	0.4	62
bin	0.5	37
bin	0.6	4
bin	0.7	6
bin	0.8	6
bin	0.9	1057
bin	1	974
bin	1.1	1
bin	1.2	1
bin	1.3	0
bin	1.4	5
bin	1.5	12
bin	1.6	0
bin	1.7	0
bin	1.8	0
bin	1.9	368
bin	2	374
bin	2.1	0
bin	2.2	0
bin	2.3	0
bin	2.4	4
bin	2.5	3
bin	2.6	0
bin	2.7	0
bin	2.8	0
bin	2.9	115
bin	3	108
bin	3.1	1
bin	3.2	0
bin	3.3	0
bin	3.4	2
bin	3.5	0
bin	3.6	0
bin	3.7	0
bin	3.8	0
bin	3.9	117
bin	4	109
bin	4.1	1
bin	4.2	0
bin	4.3	0
bin	4.4	1
bin	4.5	1
bin	4.6	0
bin	4.7	0
bin	4.8	0
bin	4.9	50
bin	5	49
bin	5.1	1
bin	5.2	0
bin	5.3	0
bin	5.4	1
bin	5.5	1
bin	5.6	0
bin	5.7	0
bin	5.8	0
bin	5.9	14
bin	6	19
bin	6.1	0
bin	6.2	0
bin	6.3	0
bin	6.4	0
bin	6.5	0
bin	6.6	0
bin	6.7	0
bin	6.8	0
bin	6.9	0
bin	7	1
bin	7.1	0
bin	7.2	0
bin	7.3	0
bin	7.4	0
bin	7.5	0
bin	7.6	0
bin	7.7	0
bin	7.8	0
bin	7.9	1
bin	8	1
bin	8.1	0
scalar Sc1.ap2.wlan[0].mac rcvdPkFromLl:count 513617
attr interpolationmode none
attr source packetReceivedFromLower
attr title "packets received from lower layer, count"
scalar Sc1.ap2.wlan[0].mac rcvdPkFromLl:sum(packetBytes) 373860350
attr interpolationmode none
attr source packetReceivedFromLower
attr title "packets received from lower layer, sum(packetBytes)"
scalar Sc1.ap2.wlan[0].mac sentDownPk:count 499988
attr interpolationmode none
attr source packetSentToLower
attr title "packets sent to lower layer, count"
scalar Sc1.ap2.wlan[0].mac sentDownPk:sum(packetBytes) 234419332
attr interpolationmode none
attr source packetSentToLower
attr title "packets sent to lower layer, sum(packetBytes)"
scalar Sc1.ap2.wlan[0].mac rcvdPkFromHl:count 0
attr interpolationmode none
attr source packetReceivedFromUpper
attr title "packets received from higher layer, count"
scalar Sc1.ap2.wlan[0].mac rcvdPkFromHl:sum(packetBytes) 0
attr interpolationmode none
attr source packetReceivedFromUpper
attr title "packets received from higher layer, sum(packetBytes)"
scalar Sc1.ap2.wlan[0].mac passedUpPk:count 0
attr interpolationmode none
attr source packetSentToUpper
attr title "packets passed to higher layer, count"
scalar Sc1.ap2.wlan[0].mac passedUpPk:sum(packetBytes) 0
attr interpolationmode none
attr source packetSentToUpper
attr title "packets passed to higher layer, sum(packetBytes)"
scalar Sc1.ap2.wlan[0].mac packetDropIncorrectlyReceived:count 6115
attr interpolationmode none
attr source packetDropReasonIsIncorrectlyReceived(packetDropped)
attr title "packet drop: incorrectly received, count"
scalar Sc1.ap2.wlan[0].mac packetDropIncorrectlyReceived:sum(packetBytes) 4956094
attr interpolationmode none
attr source packetDropReasonIsIncorrectlyReceived(packetDropped)
attr title "packet drop: incorrectly received, sum(packetBytes)"
scalar Sc1.ap2.wlan[0].mac packetDropNotAddressedToUs:count 5663
attr interpolationmode none
attr source packetDropReasonIsNotAddressedToUs(packetDropped)
attr title "packet drop: not addressed to us, count"
scalar Sc1.ap2.wlan[0].mac packetDropNotAddressedToUs:sum(packetBytes) 170058
attr interpolationmode none
attr source packetDropReasonIsNotAddressedToUs(packetDropped)
attr title "packet drop: not addressed to us, sum(packetBytes)"
scalar Sc1.ap2.wlan[0].mac packetDropQueueOverflow:count 14706
attr interpolationmode none
attr source packetDropReasonIsQueueOverflow(packetDropped)
attr title "packet drop: queue overflow, count"
scalar Sc1.ap2.wlan[0].mac packetDropQueueOverflow:sum(packetBytes) 66416754
attr interpolationmode none
attr source packetDropReasonIsQueueOverflow(packetDropped)
attr title "packet drop: queue overflow, sum(packetBytes)"
scalar Sc1.ap2.wlan[0].mac packetDropRetryLimitReached:count 0
attr interpolationmode none
attr source packetDropReasonIsRetryLimitReached(packetDropped)
attr title "packet drop: retry limit reached, count"
scalar Sc1.ap2.wlan[0].mac packetDropRetryLimitReached:sum(packetBytes) 0
attr interpolationmode none
attr source packetDropReasonIsRetryLimitReached(packetDropped)
attr title "packet drop: retry limit reached, sum(packetBytes)"
scalar Sc1.ap2.wlan[0].mac linkBroken:count 0
attr interpolationmode none
attr source linkBroken
attr title "link break, count"
statistic Sc1.ap2.wlan[0].radio radioChannel:histogram
field count 1
field mean 0
field stddev -nan
field min 0
field max 0
field sum 0
field sqrsum 0
attr interpolationmode sample-hold
attr source radioChannelChanged
attr title "Radio channel, histogram"
bin	-inf	0
bin	-0.5	0
bin	-0.48	0
bin	-0.46	0
bin	-0.44	0
bin	-0.42	0
bin	-0.4	0
bin	-0.38	0
bin	-0.36	0
bin	-0.34	0
bin	-0.32	0
bin	-0.3	0
bin	-0.28	0
bin	-0.26	0
bin	-0.24	0
bin	-0.22	0
bin	-0.2	0
bin	-0.18	0
bin	-0.16	0
bin	-0.14	0
bin	-0.12	0
bin	-0.1	0
bin	-0.08	0
bin	-0.06	0
bin	-0.04	0
bin	-0.02	0
bin	0	1
bin	0.02	0
bin	0.04	0
bin	0.06	0
bin	0.08	0
bin	0.1	0
bin	0.12	0
bin	0.14	0
bin	0.16	0
bin	0.18	0
bin	0.2	0
bin	0.22	0
bin	0.24	0
bin	0.26	0
bin	0.28	0
bin	0.3	0
bin	0.32	0
bin	0.34	0
bin	0.36	0
bin	0.38	0
bin	0.4	0
bin	0.42	0
bin	0.44	0
bin	0.46	0
bin	0.48	0
bin	0.5	0
scalar Sc1.ap2.wlan[0].radio radioMode:count 999979
attr interpolationmode sample-hold
attr source radioModeChanged
attr title "Radio mode, count"
scalar Sc1.ap2.wlan[0].radio receptionState:count 2031800
attr interpolationmode sample-hold
attr source receptionStateChanged
attr title "Radio reception state, count"
scalar Sc1.ap2.wlan[0].radio transmissionState:count 1999952
attr interpolationmode sample-hold
attr source transmissionStateChanged
attr title "Radio transmission state, count"
statistic Sc1.ap2.wlan[0].radio minSnir:histogram
field count 513617
field mean 3954.9192362556
field stddev 3503.1495906278
field min 0.052439420060298
field max 8342.7093995517
field sum 2031313753.3679
field sqrsum 14336806694075
attr source minimumSnir(packetSentToUpper)
attr title "Min SNIR, histogram"
bin	-inf	0
bin	0	6226
bin	200	7
bin	400	108471
bin	600	109299
bin	800	0
bin	1000	0
bin	1200	46
bin	1400	0
bin	1600	0
bin	1800	0
bin	2000	0
bin	2200	0
bin	2400	0
bin	2600	0
bin	2800	0
bin	3000	96799
bin	3200	0
bin	3400	0
bin	3600	0
bin	3800	0
bin	4000	1224
bin	4200	0
bin	4400	0
bin	4600	0
bin	4800	0
bin	5000	0
bin	5200	0
bin	5400	0
bin	5600	0
bin	5800	0
bin	6000	0
bin	6200	0
bin	6400	0
bin	6600	0
bin	6800	0
bin	7000	0
bin	7200	0
bin	7400	0
bin	7600	0
bin	7800	0
bin	8000	0
bin	8200	191545
bin	8400	0
bin	8600	0
bin	8800	0
bin	9000	0
bin	9200	0
bin	9400	0
bin	9600	0
bin	9800	0
bin	10000	0
bin	10200	0
bin	10400	0
bin	10600	0
statistic Sc1.ap2.wlan[0].radio packetErrorRate:histogram
field count 513617
field mean 0.01190482775248
field stddev 0.10842097195254
field min 0
field max 1
field sum 6114.5219157458
field sqrsum 6110.4034488413
attr source packetErrorRate(packetSentToUpper)
attr title "Packet error rate, histogram"
bin	-inf	0
bin	0	507516
bin	1	6101
bin	2	0
statistic Sc1.ap2.wlan[0].radio bitErrorRate:histogram
field count 0
field mean -nan
field stddev -nan
field min -nan
field max -nan
field sum 0
field sqrsum 0
attr source bitErrorRate(packetSentToUpper)
attr title "Bit error rate, histogram"
bin	-inf	0
bin	0	0
bin	1	0
statistic Sc1.ap2.wlan[0].radio symbolErrorRate:histogram
field count 0
field mean -nan
field stddev -nan
field min -nan
field max -nan
field sum 0
field sqrsum 0
attr source symbolErrorRate(packetSentToUpper)
attr title "Symbol error rate, histogram"
bin	-inf	0
bin	0	0
bin	1	0
scalar Sc1.ap2.energyStorage residualEnergyCapacity:last 655.39129982252
attr interpolationmode linear
attr source residualEnergyCapacityChanged
attr title "Residual energy capacity, last"
scalar Sc1.ap3.wlan[0].mac rcvdPkFromLl:count 794993
attr interpolationmode none
attr source packetReceivedFromLower
attr title "packets received from lower layer, count"
scalar Sc1.ap3.wlan[0].mac rcvdPkFromLl:sum(packetBytes) 357032365
attr interpolationmode none
attr source packetReceivedFromLower
attr title "packets received from lower layer, sum(packetBytes)"
scalar Sc1.ap3.wlan[0].mac sentDownPk:count 4975
attr interpolationmode none
attr source packetSentToLower
attr title "packets sent to lower layer, count"
scalar Sc1.ap3.wlan[0].mac sentDownPk:sum(packetBytes) 238658
attr interpolationmode none
attr source packetSentToLower
attr title "packets sent to lower layer, sum(packetBytes)"
scalar Sc1.ap3.wlan[0].mac rcvdPkFromHl:count 0
attr interpolationmode none
attr source packetReceivedFromUpper
attr title "packets received from higher layer, count"
scalar Sc1.ap3.wlan[0].mac rcvdPkFromHl:sum(packetBytes) 0
attr interpolationmode none
attr source packetReceivedFromUpper
attr title "packets received from higher layer, sum(packetBytes)"
scalar Sc1.ap3.wlan[0].mac passedUpPk:count 0
attr interpolationmode none
attr source packetSentToUpper
attr title "packets passed to higher layer, count"
scalar Sc1.ap3.wlan[0].mac passedUpPk:sum(packetBytes) 0
attr interpolationmode none
attr source packetSentToUpper
attr title "packets passed to higher layer, sum(packetBytes)"
scalar Sc1.ap3.wlan[0].mac packetDropIncorrectlyReceived:count 4733
attr interpolationmode none
attr source packetDropReasonIsIncorrectlyReceived(packetDropped)
attr title "packet drop: incorrectly received, count"
scalar Sc1.ap3.wlan[0].mac packetDropIncorrectlyReceived:sum(packetBytes) 3445259
attr interpolationmode none
attr source packetDropReasonIsIncorrectlyReceived(packetDropped)
attr title "packet drop: incorrectly received, sum(packetBytes)"
scalar Sc1.ap3.wlan[0].mac packetDropNotAddressedToUs:count 786040
attr interpolationmode none
attr source packetDropReasonIsNotAddressedToUs(packetDropped)
attr title "packet drop: not addressed to us, count"
scalar Sc1.ap3.wlan[0].mac packetDropNotAddressedToUs:sum(packetBytes) 353391238
attr interpolationmode none
attr source packetDropReasonIsNotAddressedToUs(packetDropped)
attr title "packet drop: not addressed to us, sum(packetBytes)"
scalar Sc1.ap3.wlan[0].mac packetDropQueueOverflow:count 0
attr interpolationmode none
attr source packetDropReasonIsQueueOverflow(packetDropped)
attr title "packet drop: queue overflow, count"
scalar Sc1.ap3.wlan[0].mac packetDropQueueOverflow:sum(packetBytes) 0
attr interpolationmode none
attr source packetDropReasonIsQueueOverflow(packetDropped)
attr title "packet drop: queue overflow, sum(packetBytes)"
scalar Sc1.ap3.wlan[0].mac packetDropRetryLimitReached:count 0
attr interpolationmode none
attr source packetDropReasonIsRetryLimitReached(packetDropped)
attr title "packet drop: retry limit reached, count"
scalar Sc1.ap3.wlan[0].mac packetDropRetryLimitReached:sum(packetBytes) 0
attr interpolationmode none
attr source packetDropReasonIsRetryLimitReached(packetDropped)
attr title "packet drop: retry limit reached, sum(packetBytes)"
scalar Sc1.ap3.wlan[0].mac linkBroken:count 0
attr interpolationmode none
attr source linkBroken
attr title "link break, count"
statistic Sc1.ap3.wlan[0].radio radioChannel:histogram
field count 1
field mean 0
field stddev -nan
field min 0
field max 0
field sum 0
field sqrsum 0
attr interpolationmode sample-hold
attr source radioChannelChanged
attr title "Radio channel, histogram"
bin	-inf	0
bin	-0.5	0
bin	-0.48	0
bin	-0.46	0
bin	-0.44	0
bin	-0.42	0
bin	-0.4	0
bin	-0.38	0
bin	-0.36	0
bin	-0.34	0
bin	-0.32	0
bin	-0.3	0
bin	-0.28	0
bin	-0.26	0
bin	-0.24	0
bin	-0.22	0
bin	-0.2	0
bin	-0.18	0
bin	-0.16	0
bin	-0.14	0
bin	-0.12	0
bin	-0.1	0
bin	-0.08	0
bin	-0.06	0
bin	-0.04	0
bin	-0.02	0
bin	0	1
bin	0.02	0
bin	0.04	0
bin	0.06	0
bin	0.08	0
bin	0.1	0
bin	0.12	0
bin	0.14	0
bin	0.16	0
bin	0.18	0
bin	0.2	0
bin	0.22	0
bin	0.24	0
bin	0.26	0
bin	0.28	0
bin	0.3	0
bin	0.32	0
bin	0.34	0
bin	0.36	0
bin	0.38	0
bin	0.4	0
bin	0.42	0
bin	0.44	0
bin	0.46	0
bin	0.48	0
bin	0.5	0
scalar Sc1.ap3.wlan[0].radio radioMode:count 9953
attr interpolationmode sample-hold
attr source radioModeChanged
attr title "Radio mode, count"
scalar Sc1.ap3.wlan[0].radio receptionState:count 1603180
attr interpolationmode sample-hold
attr source receptionStateChanged
attr title "Radio reception state, count"
scalar Sc1.ap3.wlan[0].radio transmissionState:count 19900
attr interpolationmode sample-hold
attr source transmissionStateChanged
attr title "Radio transmission state, count"
statistic Sc1.ap3.wlan[0].radio minSnir:histogram
field count 794993
field mean 750.24724817335
field stddev 240.95554961122
field min 0.34129871207105
field max 8758.9672784126
field sum 596441310.56707
field sqrsum 493635351099.55
attr source minimumSnir(packetSentToUpper)
attr title "Min SNIR, histogram"
bin	-inf	0
bin	0	4734
bin	200	0
bin	400	1224
bin	600	596304
bin	800	0
bin	1000	192724
bin	1200	0
bin	1400	0
bin	1600	0
bin	1800	0
bin	2000	0
bin	2200	0
bin	2400	0
bin	2600	0
bin	2800	0
bin	3000	0
bin	3200	0
bin	3400	0
bin	3600	0
bin	3800	0
bin	4000	0
bin	4200	0
bin	4400	0
bin	4600	0
bin	4800	0
bin	5000	0
bin	5200	0
bin	5400	0
bin	5600	0
bin	5800	0
bin	6000	0
bin	6200	0
bin	6400	0
bin	6600	0
bin	6800	0
bin	7000	0
bin	7200	0
bin	7400	0
bin	7600	0
bin	7800	0
bin	8000	0
bin	8200	0
bin	8400	0
bin	8600	7
bin	8800	0
bin	9000	0
bin	9200	0
bin	9400	0
bin	9600	0
bin	9800	0
bin	10000	0
bin	10200	0
bin	10400	0
bin	10600	0
bin	10800	0
bin	11000	0
statistic Sc1.ap3.wlan[0].radio packetErrorRate:histogram
field count 794993
field mean 0.0059535504069271
field stddev 0.076929028480904
field min 0
field max 1
field sum 4733.0308986542
field sqrsum 4733.0009547268
attr source packetErrorRate(packetSentToUpper)
attr title "Packet error rate, histogram"
bin	-inf	0
bin	0	790259
bin	0.017	1
bin	0.034	0
bin	0.051	0
bin	0.068	0
bin	0.085	0
bin	0.102	0
bin	0.119	0
bin	0.136	0
bin	0.153	0
bin	0.17	0
bin	0.187	0
bin	0.204	0
bin	0.221	0
bin	0.238	0
bin	0.255	0
bin	0.272	0
bin	0.289	0
bin	0.306	0
bin	0.323	0
bin	0.34	0
bin	0.357	0
bin	0.374	0
bin	0.391	0
bin	0.408	0
bin	0.425	0
bin	0.442	0
bin	0.459	0
bin	0.476	0
bin	0.493	0
bin	0.51	0
bin	0.527	0
bin	0.544	0
bin	0.561	0
bin	0.578	0
bin	0.595	0
bin	0.612	0
bin	0.629	0
bin	0.646	0
bin	0.663	0
bin	0.68	0
bin	0.697	0
bin	0.714	0
bin	0.731	0
bin	0.748	0
bin	0.765	0
bin	0.782	0
bin	0.799	0
bin	0.816	0
bin	0.833	0
bin	0.85	0
bin	0.867	0
bin	0.884	0
bin	0.901	0
bin	0.918	0
bin	0.935	0
bin	0.952	0
bin	0.969	0
bin	0.986	4733
bin	1.003	0
statistic Sc1.ap3.wlan[0].radio bitErrorRate:histogram
field count 0
field mean -nan
field stddev -nan
field min -nan
field max -nan
field sum 0
field sqrsum 0
attr source bitErrorRate(packetSentToUpper)
attr title "Bit error rate, histogram"
bin	-inf	0
bin	0	0
bin	1	0
statistic Sc1.ap3.wlan[0].radio symbolErrorRate:histogram
field count 0
field mean -nan
field stddev -nan
field min -nan
field max -nan
field sum 0
field sqrsum 0
attr source symbolErrorRate(packetSentToUpper)
attr title "Symbol error rate, histogram"
bin	-inf	0
bin	0	0
bin	1	0
scalar Sc1.ap3.energyStorage residualEnergyCapacity:last 818.37010386844
attr interpolationmode linear
attr source residualEnergyCapacityChanged
attr title "Residual energy capacity, last"
scalar Sc1.sink3.lo[0].lo rcvdPkFromHl:count 0
attr interpolationmode none
attr source packetReceivedFromUpper
attr title "packets received from higher layer, count"
scalar Sc1.sink3.lo[0].lo rcvdPkFromHl:sum(packetBytes) 0
attr interpolationmode none
attr source packetReceivedFromUpper
attr title "packets received from higher layer, sum(packetBytes)"
scalar Sc1.sink3.lo[0].lo passedUpPk:count 0
attr interpolationmode none
attr source packetSentToUpper
attr title "packets passed to higher layer, count"
scalar Sc1.sink3.lo[0].lo passedUpPk:sum(packetBytes) 0
attr interpolationmode none
attr source packetSentToUpper
attr title "packets passed to higher layer, sum(packetBytes)"
scalar Sc1.sink3.wlan[0].agent dropConfirm:count 0
attr title "dropped confirms, count"
scalar Sc1.sink3.wlan[0].agent acceptConfirm:count 3
attr title "accepted confirms, count"
scalar Sc1.sink3.wlan[0].agent sentRequest:count 3
attr title "sent requests, count"
scalar Sc1.sink3.wlan[0].mac rcvdPkFromLl:count 798485
attr interpolationmode none
attr source packetReceivedFromLower
attr title "packets received from lower layer, count"
scalar Sc1.sink3.wlan[0].mac rcvdPkFromLl:sum(packetBytes) 356460167
attr interpolationmode none
attr source packetReceivedFromLower
attr title "packets received from lower layer, sum(packetBytes)"
scalar Sc1.sink3.wlan[0].mac sentDownPk:count 8
attr interpolationmode none
attr source packetSentToLower
attr title "packets sent to lower layer, count"
scalar Sc1.sink3.wlan[0].mac sentDownPk:sum(packetBytes) 192
attr interpolationmode none
attr source packetSentToLower
attr title "packets sent to lower layer, sum(packetBytes)"
scalar Sc1.sink3.wlan[0].mac rcvdPkFromHl:count 0
attr interpolationmode none
attr source packetReceivedFromUpper
attr title "packets received from higher layer, count"
scalar Sc1.sink3.wlan[0].mac rcvdPkFromHl:sum(packetBytes) 0
attr interpolationmode none
attr source packetReceivedFromUpper
attr title "packets received from higher layer, sum(packetBytes)"
scalar Sc1.sink3.wlan[0].mac passedUpPk:count 0
attr interpolationmode none
attr source packetSentToUpper
attr title "packets passed to higher layer, count"
scalar Sc1.sink3.wlan[0].mac passedUpPk:sum(packetBytes) 0
attr interpolationmode none
attr source packetSentToUpper
attr title "packets passed to higher layer, sum(packetBytes)"
scalar Sc1.sink3.wlan[0].mac packetDropIncorrectlyReceived:count 4501
attr interpolationmode none
attr source packetDropReasonIsIncorrectlyReceived(packetDropped)
attr title "packet drop: incorrectly received, count"
scalar Sc1.sink3.wlan[0].mac packetDropIncorrectlyReceived:sum(packetBytes) 3258412
attr interpolationmode none
attr source packetDropReasonIsIncorrectlyReceived(packetDropped)
attr title "packet drop: incorrectly received, sum(packetBytes)"
scalar Sc1.sink3.wlan[0].mac packetDropNotAddressedToUs:count 785111
attr interpolationmode none
attr source packetDropReasonIsNotAddressedToUs(packetDropped)
attr title "packet drop: not addressed to us, count"
scalar Sc1.sink3.wlan[0].mac packetDropNotAddressedToUs:sum(packetBytes) 352778057
attr interpolationmode none
attr source packetDropReasonIsNotAddressedToUs(packetDropped)
attr title "packet drop: not addressed to us, sum(packetBytes)"
scalar Sc1.sink3.wlan[0].mac packetDropQueueOverflow:count 0
attr interpolationmode none
attr source packetDropReasonIsQueueOverflow(packetDropped)
attr title "packet drop: queue overflow, count"
scalar Sc1.sink3.wlan[0].mac packetDropQueueOverflow:sum(packetBytes) 0
attr interpolationmode none
attr source packetDropReasonIsQueueOverflow(packetDropped)
attr title "packet drop: queue overflow, sum(packetBytes)"
scalar Sc1.sink3.wlan[0].mac packetDropRetryLimitReached:count 0
attr interpolationmode none
attr source packetDropReasonIsRetryLimitReached(packetDropped)
attr title "packet drop: retry limit reached, count"
scalar Sc1.sink3.wlan[0].mac packetDropRetryLimitReached:sum(packetBytes) 0
attr interpolationmode none
[...]
bin	1550	0
bin	1600	0
bin	1650	0
bin	1700	0
bin	1750	0
bin	1800	0
bin	1850	0
bin	1900	0
bin	1950	0
bin	2000	0
bin	2050	0
bin	2100	0
bin	2150	0
bin	2200	0
bin	2250	0
bin	2300	0
bin	2350	0
bin	2400	0
bin	2450	0
bin	2500	0
bin	2550	0
bin	2600	0
bin	2650	0
bin	2700	0
bin	2750	0
bin	2800	0
bin	2850	0
bin	2900	0
bin	2950	0
bin	3000	498214
bin	3050	0
bin	3100	0
bin	3150	0
bin	3200	0
bin	3250	191545
bin	3300	0
bin	3350	0
bin	3400	0
bin	3450	0
bin	3500	0
bin	3550	0
bin	3600	0
bin	3650	0
bin	3700	0
bin	3750	0
bin	3800	0
bin	3850	0
bin	3900	0
bin	3950	0
bin	4000	0
bin	4050	0
bin	4100	0
bin	4150	0
statistic Sc1.sensor6.wlan[0].radio packetErrorRate:histogram
field count 913553
field mean 0.0058276051417944
field stddev 0.076114903985306
field min 0
field max 1
field sum 5323.8261601017
field sqrsum 5323.6691266327
attr source packetErrorRate(packetSentToUpper)
attr title "Packet error rate, histogram"
bin	-inf	0
bin	0	908265
bin	1	5288
bin	2	0
statistic Sc1.sensor6.wlan[0].radio bitErrorRate:histogram
field count 0
field mean -nan
field stddev -nan
field min -nan
field max -nan
field sum 0
field sqrsum 0
attr source bitErrorRate(packetSentToUpper)
attr title "Bit error rate, histogram"
bin	-inf	0
bin	0	0
bin	1	0
statistic Sc1.sensor6.wlan[0].radio symbolErrorRate:histogram
field count 0
field mean -nan
field stddev -nan
field min -nan
field max -nan
field sum 0
field sqrsum 0
attr source symbolErrorRate(packetSentToUpper)
attr title "Symbol error rate, histogram"
bin	-inf	0
bin	0	0
bin	1	0
scalar Sc1.sensor6.ipv4.ip packetDropAddressResolutionFailed:count 0
attr interpolationmode none
attr source packetDropReasonIsAddressResolutionFailed(packetDropped)
attr title "packet drop: address resolution failed, count"
scalar Sc1.sensor6.ipv4.ip packetDropAddressResolutionFailed:sum(packetBytes) 0
attr interpolationmode none
attr source packetDropReasonIsAddressResolutionFailed(packetDropped)
attr title "packet drop: address resolution failed, sum(packetBytes)"
scalar Sc1.sensor6.ipv4.ip packetDropHopLimitReached:count 0
attr interpolationmode none
attr source packetDropReasonIsHopLimitReached(packetDropped)
attr title "packet drop: hop limit reached, count"
scalar Sc1.sensor6.ipv4.ip packetDropHopLimitReached:sum(packetBytes) 0
attr interpolationmode none
attr source packetDropReasonIsHopLimitReached(packetDropped)
attr title "packet drop: hop limit reached, sum(packetBytes)"
scalar Sc1.sensor6.ipv4.ip packetDropForwardingDisabled:count 0
attr interpolationmode none
attr source packetDropReasonIsForwardingDisabled(packetDropped)
attr title "packet drop: forwarding disabled, count"
scalar Sc1.sensor6.ipv4.ip packetDropForwardingDisabled:sum(packetBytes) 0
attr interpolationmode none
attr source packetDropReasonIsForwardingDisabled(packetDropped)
attr title "packet drop: forwarding disabled, sum(packetBytes)"
scalar Sc1.sensor6.ipv4.ip packetDropNoInterfaceFound:count 0
attr interpolationmode none
attr source packetDropReasonIsNoInterfaceFound(packetDropped)
attr title "packet drop: no interface found, count"
scalar Sc1.sensor6.ipv4.ip packetDropNoInterfaceFound:sum(packetBytes) 0
attr interpolationmode none
attr source packetDropReasonIsNoInterfaceFound(packetDropped)
attr title "packet drop: no interface found, sum(packetBytes)"
scalar Sc1.sensor6.ipv4.ip packetDropNoRouteFound:count 0
attr interpolationmode none
attr source packetDropReasonIsNoRouteFound(packetDropped)
attr title "packet drop: no route found, count"
scalar Sc1.sensor6.ipv4.ip packetDropNoRouteFound:sum(packetBytes) 0
attr interpolationmode none
attr source packetDropReasonIsNoRouteFound(packetDropped)
attr title "packet drop: no route found, sum(packetBytes)"
scalar Sc1.sensor6.ipv4.ip packetDropUndefined:count 0
attr interpolationmode none
attr source packetDropReasonIsUndefined(packetDropped)
attr title "packet drop: undefined, count"
scalar Sc1.sensor6.ipv4.ip packetDropUndefined:sum(packetBytes) 0
attr interpolationmode none
attr source packetDropReasonIsUndefined(packetDropped)
attr title "packet drop: undefined, sum(packetBytes)"
scalar Sc1.sensor6.udp packetReceived:count 0
attr interpolationmode none
attr source packetReceived
attr title "packets received, count"
scalar Sc1.sensor6.udp packetReceived:sum(packetBytes) 0
attr interpolationmode none
attr source packetReceived
attr title "packets received, sum(packetBytes)"
scalar Sc1.sensor6.udp packetSent:count 12069
attr interpolationmode none
attr source packetSent
attr title "packets sent, count"
scalar Sc1.sensor6.udp packetSent:sum(packetBytes) 113243427
attr interpolationmode none
attr source packetSent
attr title "packets sent, sum(packetBytes)"
scalar Sc1.sensor6.udp passedUpPk:count 0
attr interpolationmode none
attr source packetSentToUpper
attr title "packets passed up, count"
scalar Sc1.sensor6.udp droppedPkWrongPort:count 0
attr interpolationmode none
attr source packetDropReasonIsNoPortFound(packetDropped)
attr title "packets dropped (wrong port), count"
scalar Sc1.sensor6.udp droppedPkBadChecksum:count 0
attr interpolationmode none
attr source packetDropReasonIsIncorrectlyReceived(packetDropped)
attr title "packets dropped (checksum error), count"
scalar Sc1.sensor6.app[0] "packets sent" 12069
scalar Sc1.sensor6.app[0] "packets received" 0
scalar Sc1.sensor6.app[0] packetReceived:count 0
attr interpolationmode none
attr source packetReceived
attr title "packets received, count"
scalar Sc1.sensor6.app[0] packetReceived:sum(packetBytes) 0
attr interpolationmode none
attr source packetReceived
attr title "packets received, sum(packetBytes)"
statistic Sc1.sensor6.app[0] rcvdPkLifetime:stats
field count 0
field mean -nan
field stddev -nan
field min -nan
field max -nan
field sum 0
field sqrsum 0
attr interpolationmode none
attr source dataAge(packetReceived)
attr title "received packet lifetime, stats"
attr unit s
scalar Sc1.sensor6.app[0] packetSent:count 12069
attr interpolationmode none
attr source packetSent
attr title "packets sent, count"
scalar Sc1.sensor6.app[0] packetSent:sum(packetBytes) 113146875
attr interpolationmode none
attr source packetSent
attr title "packets sent, sum(packetBytes)"
scalar Sc1.sensor7.lo[0].lo rcvdPkFromHl:count 0
attr interpolationmode none
attr source packetReceivedFromUpper
attr title "packets received from higher layer, count"
scalar Sc1.sensor7.lo[0].lo rcvdPkFromHl:sum(packetBytes) 0
attr interpolationmode none
attr source packetReceivedFromUpper
attr title "packets received from higher layer, sum(packetBytes)"
scalar Sc1.sensor7.lo[0].lo passedUpPk:count 0
attr interpolationmode none
attr source packetSentToUpper
attr title "packets passed to higher layer, count"
scalar Sc1.sensor7.lo[0].lo passedUpPk:sum(packetBytes) 0
attr interpolationmode none
attr source packetSentToUpper
attr title "packets passed to higher layer, sum(packetBytes)"
scalar Sc1.sensor7.wlan[0].agent dropConfirm:count 0
attr title "dropped confirms, count"
scalar Sc1.sensor7.wlan[0].agent acceptConfirm:count 3
attr title "accepted confirms, count"
scalar Sc1.sensor7.wlan[0].agent sentRequest:count 129
attr title "sent requests, count"
scalar Sc1.sensor7.wlan[0].mac rcvdPkFromLl:count 898096
attr interpolationmode none
attr source packetReceivedFromLower
attr title "packets received from lower layer, count"
scalar Sc1.sensor7.wlan[0].mac rcvdPkFromLl:sum(packetBytes) 477483057
attr interpolationmode none
attr source packetReceivedFromLower
attr title "packets received from lower layer, sum(packetBytes)"
scalar Sc1.sensor7.wlan[0].mac sentDownPk:count 109291
attr interpolationmode none
attr source packetSentToLower
attr title "packets sent to lower layer, count"
scalar Sc1.sensor7.wlan[0].mac sentDownPk:sum(packetBytes) 129700573
attr interpolationmode none
attr source packetSentToLower
attr title "packets sent to lower layer, sum(packetBytes)"
scalar Sc1.sensor7.wlan[0].mac rcvdPkFromHl:count 26304
attr interpolationmode none
attr source packetReceivedFromUpper
attr title "packets received from higher layer, count"
scalar Sc1.sensor7.wlan[0].mac rcvdPkFromHl:sum(packetBytes) 124141728
attr interpolationmode none
attr source packetReceivedFromUpper
attr title "packets received from higher layer, sum(packetBytes)"
scalar Sc1.sensor7.wlan[0].mac passedUpPk:count 172
attr interpolationmode none
attr source packetSentToUpper
attr title "packets passed to higher layer, count"
scalar Sc1.sensor7.wlan[0].mac passedUpPk:sum(packetBytes) 11008
attr interpolationmode none
attr source packetSentToUpper
attr title "packets passed to higher layer, sum(packetBytes)"
scalar Sc1.sensor7.wlan[0].mac packetDropIncorrectlyReceived:count 3973
attr interpolationmode none
attr source packetDropReasonIsIncorrectlyReceived(packetDropped)
attr title "packet drop: incorrectly received, count"
scalar Sc1.sensor7.wlan[0].mac packetDropIncorrectlyReceived:sum(packetBytes) 3062008
attr interpolationmode none
attr source packetDropReasonIsIncorrectlyReceived(packetDropped)
attr title "packet drop: incorrectly received, sum(packetBytes)"
scalar Sc1.sensor7.wlan[0].mac packetDropNotAddressedToUs:count 781188
attr interpolationmode none
attr source packetDropReasonIsNotAddressedToUs(packetDropped)
attr title "packet drop: not addressed to us, count"
scalar Sc1.sensor7.wlan[0].mac packetDropNotAddressedToUs:sum(packetBytes) 472544200
attr interpolationmode none
attr source packetDropReasonIsNotAddressedToUs(packetDropped)
attr title "packet drop: not addressed to us, sum(packetBytes)"
scalar Sc1.sensor7.wlan[0].mac packetDropQueueOverflow:count 0
attr interpolationmode none
attr source packetDropReasonIsQueueOverflow(packetDropped)
attr title "packet drop: queue overflow, count"
scalar Sc1.sensor7.wlan[0].mac packetDropQueueOverflow:sum(packetBytes) 0
attr interpolationmode none
attr source packetDropReasonIsQueueOverflow(packetDropped)
attr title "packet drop: queue overflow, sum(packetBytes)"
scalar Sc1.sensor7.wlan[0].mac packetDropRetryLimitReached:count 126
attr interpolationmode none
attr source packetDropReasonIsRetryLimitReached(packetDropped)
attr title "packet drop: retry limit reached, count"
scalar Sc1.sensor7.wlan[0].mac packetDropRetryLimitReached:sum(packetBytes) 3780
attr interpolationmode none
attr source packetDropReasonIsRetryLimitReached(packetDropped)
attr title "packet drop: retry limit reached, sum(packetBytes)"
scalar Sc1.sensor7.wlan[0].mac linkBroken:count 126
attr interpolationmode none
attr source linkBroken
attr title "link break, count"
statistic Sc1.sensor7.wlan[0].radio radioChannel:histogram
field count 4
field mean 0
field stddev 0
field min 0
field max 0
field sum 0
field sqrsum 0
attr interpolationmode sample-hold
attr source radioChannelChanged
attr title "Radio channel, histogram"
bin	-inf	0
bin	-0.5	0
bin	-0.48	0
bin	-0.46	0
bin	-0.44	0
bin	-0.42	0
bin	-0.4	0
bin	-0.38	0
bin	-0.36	0
bin	-0.34	0
bin	-0.32	0
bin	-0.3	0
bin	-0.28	0
bin	-0.26	0
bin	-0.24	0
bin	-0.22	0
bin	-0.2	0
bin	-0.18	0
bin	-0.16	0
bin	-0.14	0
bin	-0.12	0
bin	-0.1	0
bin	-0.08	0
bin	-0.06	0
bin	-0.04	0
bin	-0.02	0
bin	0	4
bin	0.02	0
bin	0.04	0
bin	0.06	0
bin	0.08	0
bin	0.1	0
bin	0.12	0
bin	0.14	0
bin	0.16	0
bin	0.18	0
bin	0.2	0
bin	0.22	0
bin	0.24	0
bin	0.26	0
bin	0.28	0
bin	0.3	0
bin	0.32	0
bin	0.34	0
bin	0.36	0
bin	0.38	0
bin	0.4	0
bin	0.42	0
bin	0.44	0
bin	0.46	0
bin	0.48	0
bin	0.5	0
scalar Sc1.sensor7.wlan[0].radio radioMode:count 218585
attr interpolationmode sample-hold
attr source radioModeChanged
attr title "Radio mode, count"
scalar Sc1.sensor7.wlan[0].radio receptionState:count 2018110
attr interpolationmode sample-hold
attr source receptionStateChanged
attr title "Radio reception state, count"
scalar Sc1.sensor7.wlan[0].radio transmissionState:count 437164
attr interpolationmode sample-hold
attr source transmissionStateChanged
attr title "Radio transmission state, count"
statistic Sc1.sensor7.wlan[0].radio minSnir:histogram
field count 898096
field mean 575.31258358576
field stddev 263.00480320306
field min 0.28682677998107
field max 1102.6078967375
field sum 516685930.06803
field sqrsum 359378519428.95
attr source minimumSnir(packetSentToUpper)
attr title "Min SNIR, histogram"
bin	-inf	0
bin	0	3973
bin	20	0
bin	40	0
bin	60	0
bin	80	0
bin	100	0
bin	120	0
bin	140	0
bin	160	0
bin	180	0
bin	200	0
bin	220	0
bin	240	0
bin	260	0
bin	280	0
bin	300	0
bin	320	0
bin	340	0
bin	360	4298
bin	380	0
bin	400	0
bin	420	191545
bin	440	498260
bin	460	0
bin	480	0
bin	500	0
bin	520	0
bin	540	0
bin	560	0
bin	580	0
bin	600	0
bin	620	0
bin	640	0
bin	660	0
bin	680	0
bin	700	0
bin	720	0
bin	740	0
bin	760	0
bin	780	0
bin	800	1284
bin	820	0
bin	840	0
bin	860	0
bin	880	0
bin	900	0
bin	920	0
bin	940	0
bin	960	0
bin	980	0
bin	1000	0
bin	1020	96799
bin	1040	0
bin	1060	0
bin	1080	0
bin	1100	101937
bin	1120	0
bin	1140	0
bin	1160	0
bin	1180	0
bin	1200	0
bin	1220	0
bin	1240	0
bin	1260	0
bin	1280	0
bin	1300	0
statistic Sc1.sensor7.wlan[0].radio packetErrorRate:histogram
field count 898096
field mean 0.0044238032459782
field stddev 0.066364434110384
field min 0
field max 1
field sum 3973
field sqrsum 3973
attr source packetErrorRate(packetSentToUpper)
attr title "Packet error rate, histogram"
bin	-inf	0
bin	-0.5	0
bin	-0.48	0
bin	-0.46	0
bin	-0.44	0
bin	-0.42	0
bin	-0.4	0
bin	-0.38	0
bin	-0.36	0
bin	-0.34	0
bin	-0.32	0
bin	-0.3	0
bin	-0.28	0
bin	-0.26	0
bin	-0.24	0
bin	-0.22	0
bin	-0.2	0
bin	-0.18	0
bin	-0.16	0
bin	-0.14	0
bin	-0.12	0
bin	-0.1	0
bin	-0.08	0
bin	-0.06	0
bin	-0.04	0
bin	-0.02	0
bin	0	894123
bin	0.02	0
bin	0.04	0
bin	0.06	0
bin	0.08	0
bin	0.1	0
bin	0.12	0
bin	0.14	0
bin	0.16	0
bin	0.18	0
bin	0.2	0
bin	0.22	0
bin	0.24	0
bin	0.26	0
bin	0.28	0
bin	0.3	0
bin	0.32	0
bin	0.34	0
bin	0.36	0
bin	0.38	0
bin	0.4	0
bin	0.42	0
bin	0.44	0
bin	0.46	0
bin	0.48	0
bin	0.5	0
bin	0.52	0
bin	0.54	0
bin	0.56	0
bin	0.58	0
bin	0.6	0
bin	0.62	0
bin	0.64	0
bin	0.66	0
bin	0.68	0
bin	0.7	0
bin	0.72	0
bin	0.74	0
bin	0.76	0
bin	0.78	0
bin	0.8	0
bin	0.82	0
bin	0.84	0
bin	0.86	0
bin	0.88	0
bin	0.9	0
bin	0.92	0
bin	0.94	0
bin	0.96	0
bin	0.98	0
bin	1	3973
bin	1.02	0
statistic Sc1.sensor7.wlan[0].radio bitErrorRate:histogram
field count 0
field mean -nan
field stddev -nan
field min -nan
field max -nan
field sum 0
field sqrsum 0
attr source bitErrorRate(packetSentToUpper)
attr title "Bit error rate, histogram"
bin	-inf	0
bin	0	0
bin	1	0
statistic Sc1.sensor7.wlan[0].radio symbolErrorRate:histogram
field count 0
field mean -nan
field stddev -nan
field min -nan
field max -nan
field sum 0
field sqrsum 0
attr source symbolErrorRate(packetSentToUpper)
attr title "Symbol error rate, histogram"
bin	-inf	0
bin	0	0
bin	1	0
scalar Sc1.sensor7.ipv4.ip packetDropAddressResolutionFailed:count 0
attr interpolationmode none
attr source packetDropReasonIsAddressResolutionFailed(packetDropped)
attr title "packet drop: address resolution failed, count"
scalar Sc1.sensor7.ipv4.ip packetDropAddressResolutionFailed:sum(packetBytes) 0
attr interpolationmode none
attr source packetDropReasonIsAddressResolutionFailed(packetDropped)
attr title "packet drop: address resolution failed, sum(packetBytes)"
scalar Sc1.sensor7.ipv4.ip packetDropHopLimitReached:count 0
attr interpolationmode none
attr source packetDropReasonIsHopLimitReached(packetDropped)
attr title "packet drop: hop limit reached, count"
scalar Sc1.sensor7.ipv4.ip packetDropHopLimitReached:sum(packetBytes) 0
attr interpolationmode none
attr source packetDropReasonIsHopLimitReached(packetDropped)
attr title "packet drop: hop limit reached, sum(packetBytes)"
scalar Sc1.sensor7.ipv4.ip packetDropForwardingDisabled:count 0
attr interpolationmode none
attr source packetDropReasonIsForwardingDisabled(packetDropped)
attr title "packet drop: forwarding disabled, count"
scalar Sc1.sensor7.ipv4.ip packetDropForwardingDisabled:sum(packetBytes) 0
attr interpolationmode none
attr source packetDropReasonIsForwardingDisabled(packetDropped)
attr title "packet drop: forwarding disabled, sum(packetBytes)"
scalar Sc1.sensor7.ipv4.ip packetDropNoInterfaceFound:count 0
attr interpolationmode none
attr source packetDropReasonIsNoInterfaceFound(packetDropped)
attr title "packet drop: no interface found, count"
scalar Sc1.sensor7.ipv4.ip packetDropNoInterfaceFound:sum(packetBytes) 0
attr interpolationmode none
attr source packetDropReasonIsNoInterfaceFound(packetDropped)
attr title "packet drop: no interface found, sum(packetBytes)"
scalar Sc1.sensor7.ipv4.ip packetDropNoRouteFound:count 0
attr interpolationmode none
attr source packetDropReasonIsNoRouteFound(packetDropped)
attr title "packet drop: no route found, count"
scalar Sc1.sensor7.ipv4.ip packetDropNoRouteFound:sum(packetBytes) 0
attr interpolationmode none
attr source packetDropReasonIsNoRouteFound(packetDropped)
attr title "packet drop: no route found, sum(packetBytes)"
scalar Sc1.sensor7.ipv4.ip packetDropUndefined:count 0
attr interpolationmode none
attr source packetDropReasonIsUndefined(packetDropped)
attr title "packet drop: undefined, count"
scalar Sc1.sensor7.ipv4.ip packetDropUndefined:sum(packetBytes) 0
attr interpolationmode none
attr source packetDropReasonIsUndefined(packetDropped)
attr title "packet drop: undefined, sum(packetBytes)"
scalar Sc1.sensor7.udp packetReceived:count 0
attr interpolationmode none
attr source packetReceived
attr title "packets received, count"
scalar Sc1.sensor7.udp packetReceived:sum(packetBytes) 0
attr interpolationmode none
attr source packetReceived
attr title "packets received, sum(packetBytes)"
scalar Sc1.sensor7.udp packetSent:count 13152
attr interpolationmode none
attr source packetSent
attr title "packets sent, count"
scalar Sc1.sensor7.udp packetSent:sum(packetBytes) 123405216
attr interpolationmode none
attr source packetSent
attr title "packets sent, sum(packetBytes)"
scalar Sc1.sensor7.udp passedUpPk:count 0
attr interpolationmode none
attr source packetSentToUpper
attr title "packets passed up, count"
scalar Sc1.sensor7.udp droppedPkWrongPort:count 0
attr interpolationmode none
attr source packetDropReasonIsNoPortFound(packetDropped)
attr title "packets dropped (wrong port), count"
scalar Sc1.sensor7.udp droppedPkBadChecksum:count 0
attr interpolationmode none
attr source packetDropReasonIsIncorrectlyReceived(packetDropped)
attr title "packets dropped (checksum error), count"
scalar Sc1.sensor7.app[0] "packets sent" 13152
scalar Sc1.sensor7.app[0] "packets received" 0
scalar Sc1.sensor7.app[0] packetReceived:count 0
attr interpolationmode none
attr source packetReceived
attr title "packets received, count"
scalar Sc1.sensor7.app[0] packetReceived:sum(packetBytes) 0
attr interpolationmode none
attr source packetReceived
attr title "packets received, sum(packetBytes)"
statistic Sc1.sensor7.app[0] rcvdPkLifetime:stats
field count 0
field mean -nan
field stddev -nan
field min -nan
field max -nan
field sum 0
field sqrsum 0
attr interpolationmode none
attr source dataAge(packetReceived)
attr title "received packet lifetime, stats"
attr unit s
scalar Sc1.sensor7.app[0] packetSent:count 13152
attr interpolationmode none
attr source packetSent
attr title "packets sent, count"
scalar Sc1.sensor7.app[0] packetSent:sum(packetBytes) 123300000
attr interpolationmode none
attr source packetSent
attr title "packets sent, sum(packetBytes)"
scalar Sc1 handoverTime:mean -nan
attr interpolationmode none
attr source handoverDelay
attr title "handoverTime, mean"
attr unit s
scalar Sc1 packetReceived:count 29236
attr interpolationmode none
attr source (packetReceived)
attr title "packets received, count"
scalar Sc1 packetReceived:sum(packetBytes) 274204444
attr interpolationmode none
attr source (packetReceived)
attr title "packets received, sum(packetBytes)"
scalar Sc1 packetLoss:last 47004
attr interpolationmode none
attr source (count(packetSent)-count(packetReceived))
attr title "packet loss, last"
scalar Sc1 packetSent:count 76240
attr interpolationmode none
attr source (packetSent)
attr title "packets sent, count"
scalar Sc1 packetSent:sum(packetBytes) 715054960
attr interpolationmode none
attr source (packetSent)
attr title "packets sent, sum(packetBytes)"

