version 2
run wsnSc2T5-1-20200331-19:03:39-18038
attr configname wsnSc2T5
attr datetime 20200331-19:03:39
attr experiment wsnSc2T5
attr inifile wsnSc2.ini
attr iterationvars $fuzzyCtrl=false
attr iterationvarsf fuzzyCtrl=false-
attr measurement $fuzzyCtrl=false
attr network Sc2
attr processid 18038
attr repetition 0
attr replication #0
attr resultdir results
attr runnumber 1
attr seedset 1
itervar fuzzyCtrl false
param *.sensor*.wlan[*].bitrate 36Mbps
param *.sensor*.numApps 1
param *.sensor*.app[0].typename "\"UdpApp\""
param *.sensor*.app[0].destPort 6343
param *.sensor*.app[0].startTime 1s
param *.sensor*.app[0].messageLength 9375Byte
param *.sensor1.sinkAddress "\"sink1\""
param *.sensor1.app[0].sendInterval 300s
param *.sensor2.sinkAddress "\"sink1\""
param *.sensor2.app[0].sendInterval 300s
param *.sensor3.sinkAddress "\"sink1\""
param *.sensor3.app[0].sendInterval 300s
param *.sensor4.sinkAddress "\"sink1\""
param *.sensor4.app[0].sendInterval 300s
param *.sensor5.sinkAddress "\"sink1\""
param *.sensor5.app[0].sendInterval 6.25s
param *.sensor6.sinkAddress "\"sink1\""
param *.sensor6.app[0].sendInterval 6.25s
param *.sensor7.sinkAddress "\"sink1\""
param *.sensor7.app[0].sendInterval 6.25s
param *.sensor8.sinkAddress "\"sink1\""
param *.sensor8.app[0].sendInterval 6.25s
param *.sensor9.sinkAddress "\"sink1\""
param *.sensor9.app[0].sendInterval 0.075s
param *.sensor10.sinkAddress "\"sink1\""
param *.sensor10.app[0].sendInterval 0.075s
param *.sensor11.sinkAddress "\"sink1\""
param *.sensor11.app[0].sendInterval 0.075s
param *.sensor12.sinkAddress "\"sink1\""
param *.sensor12.app[0].sendInterval 0.075s
param **.arp.typename "\"GlobalArp\""
param **.netmaskRoutes "\"\""
param *.*.wlan[*].mac.mtu 9375Byte
param *.ap*.wlan[*].mgmt.beaconInterval 0.05s
param *.ap*.hasStatus true
param *.ap*.energyStorage.typename "\"SimpleEpEnergyStorage\""
param *.ap*.wlan[*].radio.energyConsumer.typename "\"Ieee80211StateBasedEpEnergyConsumer\""
param *.ap*.energyManagement.typename "\"SimpleEpEnergyManagement\""
param *.ap*.energyManagement.nodeShutdownCapacity "0.1 * energyStorage.nominalCapacity"
param *.ap*.energyManagement.nodeStartCapacity "0.5 * energyStorage.nominalCapacity"
param *.ap*.energyStorage.nominalCapacity 1000J
param *.ap*.energyStorage.initialCapacity 1000J
param *.ap1.wlan[*].mgmt.sinkAddress "\"sink1\""
param *.ap1.wlan[*].radio.energyConsumer.energySourceModule "\"ap1.energyStorage\""
param *.ap2.wlan[*].mgmt.sinkAddress "\"sink2\""
param *.ap2.wlan[*].radio.energyConsumer.energySourceModule "\"ap2.energyStorage\""
param *.ap3.wlan[*].mgmt.sinkAddress "\"sink3\""
param *.ap3.wlan[*].radio.energyConsumer.energySourceModule "\"ap3.energyStorage\""
param *.ap4.wlan[*].mgmt.sinkAddress "\"sink4\""
param *.ap4.wlan[*].radio.energyConsumer.energySourceModule "\"ap4.energyStorage\""
param *.ap5.wlan[*].mgmt.sinkAddress "\"sink5\""
param *.ap5.wlan[*].radio.energyConsumer.energySourceModule "\"ap5.energyStorage\""
param *.ap6.wlan[*].mgmt.sinkAddress "\"sink6\""
param *.ap6.wlan[*].radio.energyConsumer.energySourceModule "\"ap6.energyStorage\""
param *.ap7.wlan[*].mgmt.sinkAddress "\"sink7\""
param *.ap7.wlan[*].radio.energyConsumer.energySourceModule "\"ap7.energyStorage\""
param *.ap8.wlan[*].mgmt.sinkAddress "\"sink8\""
param *.ap8.wlan[*].radio.energyConsumer.energySourceModule "\"ap8.energyStorage\""
param *.ap9.wlan[*].mgmt.sinkAddress "\"sink9\""
param *.ap9.wlan[*].radio.energyConsumer.energySourceModule "\"ap9.energyStorage\""
param *.sink*.wlan[*].mgmt.typename "\"Ieee80211MgmtSta\""
param *.sink*.wlan[*].agent.typename "\"AgentSink\""
param *.sink1.wlan[*].agent.assocApAddress "\"ap1\""
param *.sink2.wlan[*].agent.assocApAddress "\"ap2\""
param *.sink3.wlan[*].agent.assocApAddress "\"ap3\""
param *.sink4.wlan[*].agent.assocApAddress "\"ap4\""
param *.sink5.wlan[*].agent.assocApAddress "\"ap5\""
param *.sink6.wlan[*].agent.assocApAddress "\"ap6\""
param *.sink7.wlan[*].agent.assocApAddress "\"ap7\""
param *.sink8.wlan[*].agent.assocApAddress "\"ap8\""
param *.sink9.wlan[*].agent.assocApAddress "\"ap9\""
param *.sink*.numApps 1
param *.sink*.app[0].typename "\"UdpSinkAdap\""
param *.sink*.app[0].localPort 6343
param *.visualizer.dataLinkVisualizer.displayLinks true
param *.ap*.wlan[*].radio.displayCommunicationRange true
param *.controller.fuzzyControlled false

scalar Sc2.radioMedium.propagation "Arrival computation count" 13450548
scalar Sc2.radioMedium "transmission count" 463812
scalar Sc2.radioMedium "signal send count" 13450548
scalar Sc2.radioMedium "reception computation count" 13450403
scalar Sc2.radioMedium "interference computation count" 39848817
scalar Sc2.radioMedium "reception decision computation count" 5011913
scalar Sc2.radioMedium "listening decision computation count" 21435075
scalar Sc2.radioMedium "reception cache hit" 81.25836172502
attr unit %
scalar Sc2.radioMedium "interference cache hit" 66.666666666667
attr unit %
scalar Sc2.radioMedium "noise cache hit" 0
attr unit %
scalar Sc2.radioMedium "snir cache hit" 50
attr unit %
scalar Sc2.radioMedium "reception decision cache hit" 50
attr unit %
scalar Sc2.radioMedium "reception result cache hit" 0
attr unit %
scalar Sc2.sensor1.lo[0].lo rcvdPkFromHl:count 0
attr interpolationmode none
attr source packetReceivedFromUpper
attr title "packets received from higher layer, count"
scalar Sc2.sensor1.lo[0].lo rcvdPkFromHl:sum(packetBytes) 0
attr interpolationmode none
attr source packetReceivedFromUpper
attr title "packets received from higher layer, sum(packetBytes)"
scalar Sc2.sensor1.lo[0].lo passedUpPk:count 0
attr interpolationmode none
attr source packetSentToUpper
attr title "packets passed to higher layer, count"
scalar Sc2.sensor1.lo[0].lo passedUpPk:sum(packetBytes) 0
attr interpolationmode none
attr source packetSentToUpper
attr title "packets passed to higher layer, sum(packetBytes)"
scalar Sc2.sensor1.wlan[0].agent dropConfirm:count 0
attr title "dropped confirms, count"
scalar Sc2.sensor1.wlan[0].agent acceptConfirm:count 3
attr title "accepted confirms, count"
scalar Sc2.sensor1.wlan[0].agent sentRequest:count 250
attr title "sent requests, count"
scalar Sc2.sensor1.wlan[0].mac rcvdPkFromLl:count 120805
attr interpolationmode none
attr source packetReceivedFromLower
attr title "packets received from lower layer, count"
scalar Sc2.sensor1.wlan[0].mac rcvdPkFromLl:sum(packetBytes) 69074496
attr interpolationmode none
attr source packetReceivedFromLower
attr title "packets received from lower layer, sum(packetBytes)"
scalar Sc2.sensor1.wlan[0].mac sentDownPk:count 1763
attr interpolationmode none
attr source packetSentToLower
attr title "packets sent to lower layer, count"
scalar Sc2.sensor1.wlan[0].mac sentDownPk:sum(packetBytes) 81495
attr interpolationmode none
attr source packetSentToLower
attr title "packets sent to lower layer, sum(packetBytes)"
scalar Sc2.sensor1.wlan[0].mac rcvdPkFromHl:count 2
attr interpolationmode none
attr source packetReceivedFromUpper
attr title "packets received from higher layer, count"
scalar Sc2.sensor1.wlan[0].mac rcvdPkFromHl:sum(packetBytes) 9439
attr interpolationmode none
attr source packetReceivedFromUpper
attr title "packets received from higher layer, sum(packetBytes)"
scalar Sc2.sensor1.wlan[0].mac passedUpPk:count 0
attr interpolationmode none
attr source packetSentToUpper
attr title "packets passed to higher layer, count"
scalar Sc2.sensor1.wlan[0].mac passedUpPk:sum(packetBytes) 0
attr interpolationmode none
attr source packetSentToUpper
attr title "packets passed to higher layer, sum(packetBytes)"
scalar Sc2.sensor1.wlan[0].mac packetDropIncorrectlyReceived:count 20813
attr interpolationmode none
attr source packetDropReasonIsIncorrectlyReceived(packetDropped)
attr title "packet drop: incorrectly received, count"
scalar Sc2.sensor1.wlan[0].mac packetDropIncorrectlyReceived:sum(packetBytes) 18483144
attr interpolationmode none
attr source packetDropReasonIsIncorrectlyReceived(packetDropped)
attr title "packet drop: incorrectly received, sum(packetBytes)"
scalar Sc2.sensor1.wlan[0].mac packetDropNotAddressedToUs:count 85851
attr interpolationmode none
attr source packetDropReasonIsNotAddressedToUs(packetDropped)
attr title "packet drop: not addressed to us, count"
scalar Sc2.sensor1.wlan[0].mac packetDropNotAddressedToUs:sum(packetBytes) 49913108
attr interpolationmode none
attr source packetDropReasonIsNotAddressedToUs(packetDropped)
attr title "packet drop: not addressed to us, sum(packetBytes)"
scalar Sc2.sensor1.wlan[0].mac packetDropQueueOverflow:count 0
attr interpolationmode none
attr source packetDropReasonIsQueueOverflow(packetDropped)
attr title "packet drop: queue overflow, count"
scalar Sc2.sensor1.wlan[0].mac packetDropQueueOverflow:sum(packetBytes) 0
attr interpolationmode none
attr source packetDropReasonIsQueueOverflow(packetDropped)
attr title "packet drop: queue overflow, sum(packetBytes)"
scalar Sc2.sensor1.wlan[0].mac packetDropRetryLimitReached:count 248
attr interpolationmode none
attr source packetDropReasonIsRetryLimitReached(packetDropped)
attr title "packet drop: retry limit reached, count"
scalar Sc2.sensor1.wlan[0].mac packetDropRetryLimitReached:sum(packetBytes) 8910
attr interpolationmode none
attr source packetDropReasonIsRetryLimitReached(packetDropped)
attr title "packet drop: retry limit reached, sum(packetBytes)"
scalar Sc2.sensor1.wlan[0].mac linkBroken:count 248
attr interpolationmode none
attr source linkBroken
attr title "link break, count"
statistic Sc2.sensor1.wlan[0].radio radioChannel:histogram
field count 4
field mean 0
field stddev 0
field min 0
field max 0
field sum 0
field sqrsum 0
attr interpolationmode sample-hold
attr source radioChannelChanged
attr title "Radio channel, histogram"
bin	-inf	0
bin	-0.5	0
bin	-0.48	0
bin	-0.46	0
bin	-0.44	0
bin	-0.42	0
bin	-0.4	0
bin	-0.38	0
bin	-0.36	0
bin	-0.34	0
bin	-0.32	0
bin	-0.3	0
bin	-0.28	0
bin	-0.26	0
bin	-0.24	0
bin	-0.22	0
bin	-0.2	0
bin	-0.18	0
bin	-0.16	0
bin	-0.14	0
bin	-0.12	0
bin	-0.1	0
bin	-0.08	0
bin	-0.06	0
bin	-0.04	0
bin	-0.02	0
bin	0	4
bin	0.02	0
bin	0.04	0
bin	0.06	0
bin	0.08	0
bin	0.1	0
bin	0.12	0
bin	0.14	0
bin	0.16	0
bin	0.18	0
bin	0.2	0
bin	0.22	0
bin	0.24	0
bin	0.26	0
bin	0.28	0
bin	0.3	0
bin	0.32	0
bin	0.34	0
bin	0.36	0
bin	0.38	0
bin	0.4	0
bin	0.42	0
bin	0.44	0
bin	0.46	0
bin	0.48	0
bin	0.5	0
scalar Sc2.sensor1.wlan[0].radio radioMode:count 3529
attr interpolationmode sample-hold
attr source radioModeChanged
attr title "Radio mode, count"
scalar Sc2.sensor1.wlan[0].radio receptionState:count 257111
attr interpolationmode sample-hold
attr source receptionStateChanged
attr title "Radio reception state, count"
scalar Sc2.sensor1.wlan[0].radio transmissionState:count 7052
attr interpolationmode sample-hold
attr source transmissionStateChanged
attr title "Radio transmission state, count"
statistic Sc2.sensor1.wlan[0].radio minSnir:histogram
field count 120805
field mean 650.87189042669
field stddev 408.77900502352
field min 0.26070166843014
field max 1941.5719888671
field sum 78628578.722997
field sqrsum 71363513289.822
attr source minimumSnir(packetSentToUpper)
attr title "Min SNIR, histogram"
bin	-inf	0
bin	0	21102
bin	50	0
bin	100	0
bin	150	0
bin	200	0
bin	250	0
bin	300	0
bin	350	0
bin	400	20109
bin	450	0
bin	500	0
bin	550	0
bin	600	0
bin	650	49123
bin	700	0
bin	750	0
bin	800	0
bin	850	0
bin	900	0
bin	950	0
bin	1000	0
bin	1050	0
bin	1100	0
bin	1150	422
bin	1200	23033
bin	1250	3391
bin	1300	3531
bin	1350	0
bin	1400	0
bin	1450	0
bin	1500	0
bin	1550	0
bin	1600	0
bin	1650	0
bin	1700	0
bin	1750	10
bin	1800	0
bin	1850	0
bin	1900	84
bin	1950	0
bin	2000	0
bin	2050	0
bin	2100	0
bin	2150	0
bin	2200	0
bin	2250	0
bin	2300	0
bin	2350	0
bin	2400	0
bin	2450	0
statistic Sc2.sensor1.wlan[0].radio packetErrorRate:histogram
field count 120805
field mean 0.17226205619335
field stddev 0.37657327973618
field min 0
field max 1
field sum 20810.117698438
field sqrsum 20715.69904346
attr source packetErrorRate(packetSentToUpper)
attr title "Packet error rate, histogram"
bin	-inf	0
bin	0	100155
bin	1	20650
bin	2	0
statistic Sc2.sensor1.wlan[0].radio bitErrorRate:histogram
field count 0
field mean -nan
field stddev -nan
field min -nan
field max -nan
field sum 0
field sqrsum 0
attr source bitErrorRate(packetSentToUpper)
attr title "Bit error rate, histogram"
bin	-inf	0
bin	0	0
bin	1	0
statistic Sc2.sensor1.wlan[0].radio symbolErrorRate:histogram
field count 0
field mean -nan
field stddev -nan
field min -nan
field max -nan
field sum 0
field sqrsum 0
attr source symbolErrorRate(packetSentToUpper)
attr title "Symbol error rate, histogram"
bin	-inf	0
bin	0	0
bin	1	0
scalar Sc2.sensor1.ipv4.ip packetDropAddressResolutionFailed:count 0
attr interpolationmode none
attr source packetDropReasonIsAddressResolutionFailed(packetDropped)
attr title "packet drop: address resolution failed, count"
scalar Sc2.sensor1.ipv4.ip packetDropAddressResolutionFailed:sum(packetBytes) 0
attr interpolationmode none
attr source packetDropReasonIsAddressResolutionFailed(packetDropped)
attr title "packet drop: address resolution failed, sum(packetBytes)"
scalar Sc2.sensor1.ipv4.ip packetDropHopLimitReached:count 0
attr interpolationmode none
attr source packetDropReasonIsHopLimitReached(packetDropped)
attr title "packet drop: hop limit reached, count"
scalar Sc2.sensor1.ipv4.ip packetDropHopLimitReached:sum(packetBytes) 0
attr interpolationmode none
attr source packetDropReasonIsHopLimitReached(packetDropped)
attr title "packet drop: hop limit reached, sum(packetBytes)"
scalar Sc2.sensor1.ipv4.ip packetDropForwardingDisabled:count 0
attr interpolationmode none
attr source packetDropReasonIsForwardingDisabled(packetDropped)
attr title "packet drop: forwarding disabled, count"
scalar Sc2.sensor1.ipv4.ip packetDropForwardingDisabled:sum(packetBytes) 0
attr interpolationmode none
attr source packetDropReasonIsForwardingDisabled(packetDropped)
attr title "packet drop: forwarding disabled, sum(packetBytes)"
scalar Sc2.sensor1.ipv4.ip packetDropNoInterfaceFound:count 0
attr interpolationmode none
attr source packetDropReasonIsNoInterfaceFound(packetDropped)
attr title "packet drop: no interface found, count"
scalar Sc2.sensor1.ipv4.ip packetDropNoInterfaceFound:sum(packetBytes) 0
attr interpolationmode none
attr source packetDropReasonIsNoInterfaceFound(packetDropped)
attr title "packet drop: no interface found, sum(packetBytes)"
scalar Sc2.sensor1.ipv4.ip packetDropNoRouteFound:count 0
attr interpolationmode none
attr source packetDropReasonIsNoRouteFound(packetDropped)
attr title "packet drop: no route found, count"
scalar Sc2.sensor1.ipv4.ip packetDropNoRouteFound:sum(packetBytes) 0
attr interpolationmode none
attr source packetDropReasonIsNoRouteFound(packetDropped)
attr title "packet drop: no route found, sum(packetBytes)"
scalar Sc2.sensor1.ipv4.ip packetDropUndefined:count 0
attr interpolationmode none
attr source packetDropReasonIsUndefined(packetDropped)
attr title "packet drop: undefined, count"
scalar Sc2.sensor1.ipv4.ip packetDropUndefined:sum(packetBytes) 0
attr interpolationmode none
attr source packetDropReasonIsUndefined(packetDropped)
attr title "packet drop: undefined, sum(packetBytes)"
scalar Sc2.sensor1.udp packetReceived:count 0
attr interpolationmode none
attr source packetReceived
attr title "packets received, count"
scalar Sc2.sensor1.udp packetReceived:sum(packetBytes) 0
attr interpolationmode none
attr source packetReceived
attr title "packets received, sum(packetBytes)"
scalar Sc2.sensor1.udp packetSent:count 1
attr interpolationmode none
attr source packetSent
attr title "packets sent, count"
scalar Sc2.sensor1.udp packetSent:sum(packetBytes) 9383
attr interpolationmode none
attr source packetSent
attr title "packets sent, sum(packetBytes)"
scalar Sc2.sensor1.udp passedUpPk:count 0
attr interpolationmode none
attr source packetSentToUpper
attr title "packets passed up, count"
scalar Sc2.sensor1.udp droppedPkWrongPort:count 0
attr interpolationmode none
attr source packetDropReasonIsNoPortFound(packetDropped)
attr title "packets dropped (wrong port), count"
scalar Sc2.sensor1.udp droppedPkBadChecksum:count 0
attr interpolationmode none
attr source packetDropReasonIsIncorrectlyReceived(packetDropped)
attr title "packets dropped (checksum error), count"
scalar Sc2.sensor1.app[0] "packets sent" 1
scalar Sc2.sensor1.app[0] "packets received" 0
scalar Sc2.sensor1.app[0] packetReceived:count 0
attr interpolationmode none
attr source packetReceived
attr title "packets received, count"
scalar Sc2.sensor1.app[0] packetReceived:sum(packetBytes) 0
attr interpolationmode none
attr source packetReceived
attr title "packets received, sum(packetBytes)"
statistic Sc2.sensor1.app[0] rcvdPkLifetime:stats
field count 0
field mean -nan
field stddev -nan
field min -nan
field max -nan
field sum 0
field sqrsum 0
attr interpolationmode none
attr source dataAge(packetReceived)
attr title "received packet lifetime, stats"
attr unit s
scalar Sc2.sensor1.app[0] packetSent:count 1
attr interpolationmode none
attr source packetSent
attr title "packets sent, count"
scalar Sc2.sensor1.app[0] packetSent:sum(packetBytes) 9375
attr interpolationmode none
attr source packetSent
attr title "packets sent, sum(packetBytes)"
scalar Sc2.sensor2.lo[0].lo rcvdPkFromHl:count 0
attr interpolationmode none
attr source packetReceivedFromUpper
attr title "packets received from higher layer, count"
scalar Sc2.sensor2.lo[0].lo rcvdPkFromHl:sum(packetBytes) 0
attr interpolationmode none
attr source packetReceivedFromUpper
attr title "packets received from higher layer, sum(packetBytes)"
scalar Sc2.sensor2.lo[0].lo passedUpPk:count 0
attr interpolationmode none
attr source packetSentToUpper
attr title "packets passed to higher layer, count"
scalar Sc2.sensor2.lo[0].lo passedUpPk:sum(packetBytes) 0
attr interpolationmode none
attr source packetSentToUpper
attr title "packets passed to higher layer, sum(packetBytes)"
scalar Sc2.sensor2.wlan[0].agent dropConfirm:count 0
attr title "dropped confirms, count"
scalar Sc2.sensor2.wlan[0].agent acceptConfirm:count 3
attr title "accepted confirms, count"
scalar Sc2.sensor2.wlan[0].agent sentRequest:count 230
attr title "sent requests, count"
scalar Sc2.sensor2.wlan[0].mac rcvdPkFromLl:count 13853
attr interpolationmode none
attr source packetReceivedFromLower
attr title "packets received from lower layer, count"
scalar Sc2.sensor2.wlan[0].mac rcvdPkFromLl:sum(packetBytes) 2630588
attr interpolationmode none
attr source packetReceivedFromLower
attr title "packets received from lower layer, sum(packetBytes)"
scalar Sc2.sensor2.wlan[0].mac sentDownPk:count 1617
attr interpolationmode none
attr source packetSentToLower
attr title "packets sent to lower layer, count"
scalar Sc2.sensor2.wlan[0].mac sentDownPk:sum(packetBytes) 71267
attr interpolationmode none
attr source packetSentToLower
attr title "packets sent to lower layer, sum(packetBytes)"
scalar Sc2.sensor2.wlan[0].mac rcvdPkFromHl:count 2
attr interpolationmode none
attr source packetReceivedFromUpper
attr title "packets received from higher layer, count"
scalar Sc2.sensor2.wlan[0].mac rcvdPkFromHl:sum(packetBytes) 9439
attr interpolationmode none
attr source packetReceivedFromUpper
attr title "packets received from higher layer, sum(packetBytes)"
scalar Sc2.sensor2.wlan[0].mac passedUpPk:count 0
attr interpolationmode none
attr source packetSentToUpper
attr title "packets passed to higher layer, count"
scalar Sc2.sensor2.wlan[0].mac passedUpPk:sum(packetBytes) 0
attr interpolationmode none
attr source packetSentToUpper
attr title "packets passed to higher layer, sum(packetBytes)"
scalar Sc2.sensor2.wlan[0].mac packetDropIncorrectlyReceived:count 3989
attr interpolationmode none
attr source packetDropReasonIsIncorrectlyReceived(packetDropped)
attr title "packet drop: incorrectly received, count"
scalar Sc2.sensor2.wlan[0].mac packetDropIncorrectlyReceived:sum(packetBytes) 1445688
attr interpolationmode none
attr source packetDropReasonIsIncorrectlyReceived(packetDropped)
attr title "packet drop: incorrectly received, sum(packetBytes)"
scalar Sc2.sensor2.wlan[0].mac packetDropNotAddressedToUs:count 2472
attr interpolationmode none
attr source packetDropReasonIsNotAddressedToUs(packetDropped)
attr title "packet drop: not addressed to us, count"
scalar Sc2.sensor2.wlan[0].mac packetDropNotAddressedToUs:sum(packetBytes) 830610
attr interpolationmode none
attr source packetDropReasonIsNotAddressedToUs(packetDropped)
attr title "packet drop: not addressed to us, sum(packetBytes)"
scalar Sc2.sensor2.wlan[0].mac packetDropQueueOverflow:count 0
attr interpolationmode none
attr source packetDropReasonIsQueueOverflow(packetDropped)
attr title "packet drop: queue overflow, count"
scalar Sc2.sensor2.wlan[0].mac packetDropQueueOverflow:sum(packetBytes) 0
attr interpolationmode none
attr source packetDropReasonIsQueueOverflow(packetDropped)
attr title "packet drop: queue overflow, sum(packetBytes)"
scalar Sc2.sensor2.wlan[0].mac packetDropRetryLimitReached:count 227
attr interpolationmode none
attr source packetDropReasonIsRetryLimitReached(packetDropped)
attr title "packet drop: retry limit reached, count"
scalar Sc2.sensor2.wlan[0].mac packetDropRetryLimitReached:sum(packetBytes) 6810
attr interpolationmode none
attr source packetDropReasonIsRetryLimitReached(packetDropped)
attr title "packet drop: retry limit reached, sum(packetBytes)"
scalar Sc2.sensor2.wlan[0].mac linkBroken:count 227
attr interpolationmode none
attr source linkBroken
attr title "link break, count"
statistic Sc2.sensor2.wlan[0].radio radioChannel:histogram
field count 4
field mean 0
field stddev 0
field min 0
field max 0
field sum 0
field sqrsum 0
attr interpolationmode sample-hold
attr source radioChannelChanged
attr title "Radio channel, histogram"
bin	-inf	0
bin	-0.5	0
bin	-0.48	0
bin	-0.46	0
bin	-0.44	0
bin	-0.42	0
bin	-0.4	0
bin	-0.38	0
bin	-0.36	0
bin	-0.34	0
bin	-0.32	0
bin	-0.3	0
bin	-0.28	0
bin	-0.26	0
bin	-0.24	0
bin	-0.22	0
bin	-0.2	0
bin	-0.18	0
bin	-0.16	0
bin	-0.14	0
bin	-0.12	0
bin	-0.1	0
bin	-0.08	0
bin	-0.06	0
bin	-0.04	0
bin	-0.02	0
bin	0	4
bin	0.02	0
bin	0.04	0
bin	0.06	0
bin	0.08	0
bin	0.1	0
bin	0.12	0
bin	0.14	0
bin	0.16	0
bin	0.18	0
bin	0.2	0
bin	0.22	0
bin	0.24	0
bin	0.26	0
bin	0.28	0
bin	0.3	0
bin	0.32	0
bin	0.34	0
bin	0.36	0
bin	0.38	0
bin	0.4	0
bin	0.42	0
bin	0.44	0
bin	0.46	0
bin	0.48	0
bin	0.5	0
scalar Sc2.sensor2.wlan[0].radio radioMode:count 3237
attr interpolationmode sample-hold
attr source radioModeChanged
attr title "Radio mode, count"
scalar Sc2.sensor2.wlan[0].radio receptionState:count 54281
attr interpolationmode sample-hold
attr source receptionStateChanged
attr title "Radio reception state, count"
scalar Sc2.sensor2.wlan[0].radio transmissionState:count 6468
attr interpolationmode sample-hold
attr source transmissionStateChanged
attr title "Radio transmission state, count"
statistic Sc2.sensor2.wlan[0].radio minSnir:histogram
field count 13853
field mean 631.79763332985
field stddev 499.07116773299
field min 0.32970806966941
field max 1288.9994615951
field sum 8752292.6145184
field sqrsum 8979823526.0277
attr source minimumSnir(packetSentToUpper)
attr title "Min SNIR, histogram"
bin	-inf	0
bin	0	4000
bin	20	272
bin	40	0
bin	60	0
bin	80	0
bin	100	0
bin	120	0
bin	140	0
bin	160	0
bin	180	0
bin	200	0
bin	220	0
bin	240	0
bin	260	0
bin	280	0
bin	300	0
bin	320	0
bin	340	0
bin	360	0
bin	380	0
bin	400	568
bin	420	0
bin	440	278
bin	460	0
bin	480	0
bin	500	1095
bin	520	0
bin	540	0
bin	560	0
bin	580	0
bin	600	0
bin	620	0
bin	640	0
bin	660	0
bin	680	0
bin	700	0
bin	720	3697
bin	740	9
bin	760	0
bin	780	0
bin	800	0
bin	820	0
bin	840	0
bin	860	0
bin	880	0
bin	900	0
bin	920	0
bin	940	0
bin	960	0
bin	980	0
bin	1000	0
bin	1020	0
bin	1040	0
bin	1060	0
bin	1080	0
bin	1100	0
bin	1120	0
bin	1140	0
bin	1160	0
bin	1180	0
bin	1200	0
bin	1220	136
bin	1240	0
bin	1260	0
bin	1280	3798
bin	1300	0
bin	1320	0
bin	1340	0
bin	1360	0
bin	1380	0
bin	1400	0
bin	1420	0
bin	1440	0
bin	1460	0
bin	1480	0
bin	1500	0
bin	1520	0
bin	1540	0
bin	1560	0
bin	1580	0
bin	1600	0
bin	1620	0
statistic Sc2.sensor2.wlan[0].radio packetErrorRate:histogram
field count 13853
field mean 0.2880739698023
field stddev 0.45243360899096
field min 0
field max 1
field sum 3990.6887036713
field sqrsum 3985.0648914954
attr source packetErrorRate(packetSentToUpper)
attr title "Packet error rate, histogram"
bin	-inf	0
bin	0	9853
bin	0.02	0
bin	0.04	0
bin	0.06	0
bin	0.08	0
bin	0.1	0
bin	0.12	0
bin	0.14	0
bin	0.16	7
bin	0.18	0
bin	0.2	0
bin	0.22	0
bin	0.24	0
bin	0.26	0
bin	0.28	0
bin	0.3	0
bin	0.32	0
bin	0.34	0
bin	0.36	1
bin	0.38	0
bin	0.4	0
bin	0.42	0
bin	0.44	0
bin	0.46	0
bin	0.48	0
bin	0.5	0
bin	0.52	0
bin	0.54	0
bin	0.56	0
bin	0.58	0
bin	0.6	4
bin	0.62	0
bin	0.64	0
bin	0.66	0
bin	0.68	0
bin	0.7	0
bin	0.72	0
bin	0.74	0
bin	0.76	1
bin	0.78	0
bin	0.8	0
bin	0.82	3
bin	0.84	0
bin	0.86	2
bin	0.88	3
bin	0.9	0
bin	0.92	0
bin	0.94	0
bin	0.96	0
bin	0.98	403
bin	1	3576
bin	1.02	0
bin	1.04	0
bin	1.06	0
bin	1.08	0
bin	1.1	0
bin	1.12	0
bin	1.14	0
bin	1.16	0
bin	1.18	0
bin	1.2	0
bin	1.22	0
bin	1.24	0
bin	1.26	0
statistic Sc2.sensor2.wlan[0].radio bitErrorRate:histogram
field count 0
field mean -nan
field stddev -nan
field min -nan
field max -nan
field sum 0
field sqrsum 0
attr source bitErrorRate(packetSentToUpper)
attr title "Bit error rate, histogram"
bin	-inf	0
bin	0	0
bin	1	0
statistic Sc2.sensor2.wlan[0].radio symbolErrorRate:histogram
field count 0
field mean -nan
field stddev -nan
field min -nan
field max -nan
field sum 0
field sqrsum 0
attr source symbolErrorRate(packetSentToUpper)
attr title "Symbol error rate, histogram"
bin	-inf	0
bin	0	0
bin	1	0
scalar Sc2.sensor2.ipv4.ip packetDropAddressResolutionFailed:count 0
attr interpolationmode none
attr source packetDropReasonIsAddressResolutionFailed(packetDropped)
attr title "packet drop: address resolution failed, count"
scalar Sc2.sensor2.ipv4.ip packetDropAddressResolutionFailed:sum(packetBytes) 0
attr interpolationmode none
attr source packetDropReasonIsAddressResolutionFailed(packetDropped)
attr title "packet drop: address resolution failed, sum(packetBytes)"
scalar Sc2.sensor2.ipv4.ip packetDropHopLimitReached:count 0
attr interpolationmode none
attr source packetDropReasonIsHopLimitReached(packetDropped)
attr title "packet drop: hop limit reached, count"
scalar Sc2.sensor2.ipv4.ip packetDropHopLimitReached:sum(packetBytes) 0
attr interpolationmode none
attr source packetDropReasonIsHopLimitReached(packetDropped)
attr title "packet drop: hop limit reached, sum(packetBytes)"
scalar Sc2.sensor2.ipv4.ip packetDropForwardingDisabled:count 0
attr interpolationmode none
attr source packetDropReasonIsForwardingDisabled(packetDropped)
attr title "packet drop: forwarding disabled, count"
scalar Sc2.sensor2.ipv4.ip packetDropForwardingDisabled:sum(packetBytes) 0
attr interpolationmode none
attr source packetDropReasonIsForwardingDisabled(packetDropped)
attr title "packet drop: forwarding disabled, sum(packetBytes)"
scalar Sc2.sensor2.ipv4.ip packetDropNoInterfaceFound:count 0
attr interpolationmode none
attr source packetDropReasonIsNoInterfaceFound(packetDropped)
attr title "packet drop: no interface found, count"
scalar Sc2.sensor2.ipv4.ip packetDropNoInterfaceFound:sum(packetBytes) 0
attr interpolationmode none
attr source packetDropReasonIsNoInterfaceFound(packetDropped)
attr title "packet drop: no interface found, sum(packetBytes)"
scalar Sc2.sensor2.ipv4.ip packetDropNoRouteFound:count 0
attr interpolationmode none
attr source packetDropReasonIsNoRouteFound(packetDropped)
attr title "packet drop: no route found, count"
scalar Sc2.sensor2.ipv4.ip packetDropNoRouteFound:sum(packetBytes) 0
attr interpolationmode none
attr source packetDropReasonIsNoRouteFound(packetDropped)
attr title "packet drop: no route found, sum(packetBytes)"
scalar Sc2.sensor2.ipv4.ip packetDropUndefined:count 0
attr interpolationmode none
attr source packetDropReasonIsUndefined(packetDropped)
attr title "packet drop: undefined, count"
scalar Sc2.sensor2.ipv4.ip packetDropUndefined:sum(packetBytes) 0
attr interpolationmode none
attr source packetDropReasonIsUndefined(packetDropped)
attr title "packet drop: undefined, sum(packetBytes)"
scalar Sc2.sensor2.udp packetReceived:count 0
attr interpolationmode none
attr source packetReceived
attr title "packets received, count"
scalar Sc2.sensor2.udp packetReceived:sum(packetBytes) 0
attr interpolationmode none
attr source packetReceived
attr title "packets received, sum(packetBytes)"
scalar Sc2.sensor2.udp packetSent:count 1
attr interpolationmode none
attr source packetSent
attr title "packets sent, count"
scalar Sc2.sensor2.udp packetSent:sum(packetBytes) 9383
attr interpolationmode none
attr source packetSent
attr title "packets sent, sum(packetBytes)"
scalar Sc2.sensor2.udp passedUpPk:count 0
attr interpolationmode none
attr source packetSentToUpper
attr title "packets passed up, count"
scalar Sc2.sensor2.udp droppedPkWrongPort:count 0
attr interpolationmode none
attr source packetDropReasonIsNoPortFound(packetDropped)
attr title "packets dropped (wrong port), count"
scalar Sc2.sensor2.udp droppedPkBadChecksum:count 0
attr interpolationmode none
attr source packetDropReasonIsIncorrectlyReceived(packetDropped)
attr title "packets dropped (checksum error), count"
scalar Sc2.sensor2.app[0] "packets sent" 1
scalar Sc2.sensor2.app[0] "packets received" 0
scalar Sc2.sensor2.app[0] packetReceived:count 0
attr interpolationmode none
attr source packetReceived
attr title "packets received, count"
scalar Sc2.sensor2.app[0] packetReceived:sum(packetBytes) 0
attr interpolationmode none
attr source packetReceived
attr title "packets received, sum(packetBytes)"
statistic Sc2.sensor2.app[0] rcvdPkLifetime:stats
field count 0
field mean -nan
field stddev -nan
field min -nan
field max -nan
field sum 0
field sqrsum 0
attr interpolationmode none
attr source dataAge(packetReceived)
attr title "received packet lifetime, stats"
attr unit s
scalar Sc2.sensor2.app[0] packetSent:count 1
attr interpolationmode none
attr source packetSent
attr title "packets sent, count"
scalar Sc2.sensor2.app[0] packetSent:sum(packetBytes) 9375
attr interpolationmode none
attr source packetSent
attr title "packets sent, sum(packetBytes)"
scalar Sc2.sensor3.lo[0].lo rcvdPkFromHl:count 0
attr interpolationmode none
attr source packetReceivedFromUpper
attr title "packets received from higher layer, count"
scalar Sc2.sensor3.lo[0].lo rcvdPkFromHl:sum(packetBytes) 0
attr interpolationmode none
attr source packetReceivedFromUpper
attr title "packets received from higher layer, sum(packetBytes)"
scalar Sc2.sensor3.lo[0].lo passedUpPk:count 0
attr interpolationmode none
attr source packetSentToUpper
attr title "packets passed to higher layer, count"
scalar Sc2.sensor3.lo[0].lo passedUpPk:sum(packetBytes) 0
attr interpolationmode none
attr source packetSentToUpper
attr title "packets passed to higher layer, sum(packetBytes)"
scalar Sc2.sensor3.wlan[0].agent dropConfirm:count 0
attr title "dropped confirms, count"
scalar Sc2.sensor3.wlan[0].agent acceptConfirm:count 3
attr title "accepted confirms, count"
scalar Sc2.sensor3.wlan[0].agent sentRequest:count 232
attr title "sent requests, count"
scalar Sc2.sensor3.wlan[0].mac rcvdPkFromLl:count 301331
attr interpolationmode none
attr source packetReceivedFromLower
attr title "packets received from lower layer, count"
scalar Sc2.sensor3.wlan[0].mac rcvdPkFromLl:sum(packetBytes) 167565081
attr interpolationmode none
attr source packetReceivedFromLower
attr title "packets received from lower layer, sum(packetBytes)"
scalar Sc2.sensor3.wlan[0].mac sentDownPk:count 1639
attr interpolationmode none
attr source packetSentToLower
attr title "packets sent to lower layer, count"
scalar Sc2.sensor3.wlan[0].mac sentDownPk:sum(packetBytes) 73597
attr interpolationmode none
attr source packetSentToLower
attr title "packets sent to lower layer, sum(packetBytes)"
scalar Sc2.sensor3.wlan[0].mac rcvdPkFromHl:count 2
attr interpolationmode none
attr source packetReceivedFromUpper
attr title "packets received from higher layer, count"
scalar Sc2.sensor3.wlan[0].mac rcvdPkFromHl:sum(packetBytes) 9439
attr interpolationmode none
attr source packetReceivedFromUpper
attr title "packets received from higher layer, sum(packetBytes)"
scalar Sc2.sensor3.wlan[0].mac passedUpPk:count 0
attr interpolationmode none
attr source packetSentToUpper
attr title "packets passed to higher layer, count"
scalar Sc2.sensor3.wlan[0].mac passedUpPk:sum(packetBytes) 0
attr interpolationmode none
attr source packetSentToUpper
attr title "packets passed to higher layer, sum(packetBytes)"
scalar Sc2.sensor3.wlan[0].mac packetDropIncorrectlyReceived:count 34802
attr interpolationmode none
attr source packetDropReasonIsIncorrectlyReceived(packetDropped)
attr title "packet drop: incorrectly received, count"
scalar Sc2.sensor3.wlan[0].mac packetDropIncorrectlyReceived:sum(packetBytes) 34793321
attr interpolationmode none
attr source packetDropReasonIsIncorrectlyReceived(packetDropped)
attr title "packet drop: incorrectly received, sum(packetBytes)"
scalar Sc2.sensor3.wlan[0].mac packetDropNotAddressedToUs:count 251056
attr interpolationmode none
attr source packetDropReasonIsNotAddressedToUs(packetDropped)
attr title "packet drop: not addressed to us, count"
scalar Sc2.sensor3.wlan[0].mac packetDropNotAddressedToUs:sum(packetBytes) 132029614
attr interpolationmode none
attr source packetDropReasonIsNotAddressedToUs(packetDropped)
attr title "packet drop: not addressed to us, sum(packetBytes)"
scalar Sc2.sensor3.wlan[0].mac packetDropQueueOverflow:count 0
attr interpolationmode none
attr source packetDropReasonIsQueueOverflow(packetDropped)
attr title "packet drop: queue overflow, count"
scalar Sc2.sensor3.wlan[0].mac packetDropQueueOverflow:sum(packetBytes) 0
attr interpolationmode none
attr source packetDropReasonIsQueueOverflow(packetDropped)
attr title "packet drop: queue overflow, sum(packetBytes)"
scalar Sc2.sensor3.wlan[0].mac packetDropRetryLimitReached:count 229
attr interpolationmode none
attr source packetDropReasonIsRetryLimitReached(packetDropped)
attr title "packet drop: retry limit reached, count"
scalar Sc2.sensor3.wlan[0].mac packetDropRetryLimitReached:sum(packetBytes) 6870
attr interpolationmode none
attr source packetDropReasonIsRetryLimitReached(packetDropped)
attr title "packet drop: retry limit reached, sum(packetBytes)"
scalar Sc2.sensor3.wlan[0].mac linkBroken:count 229
attr interpolationmode none
attr source linkBroken
attr title "link break, count"
statistic Sc2.sensor3.wlan[0].radio radioChannel:histogram
field count 4
field mean 0
field stddev 0
field min 0
field max 0
field sum 0
field sqrsum 0
attr interpolationmode sample-hold
attr source radioChannelChanged
attr title "Radio channel, histogram"
bin	-inf	0
bin	-0.5	0
bin	-0.48	0
bin	-0.46	0
bin	-0.44	0
bin	-0.42	0
bin	-0.4	0
bin	-0.38	0
bin	-0.36	0
bin	-0.34	0
bin	-0.32	0
bin	-0.3	0
bin	-0.28	0
bin	-0.26	0
bin	-0.24	0
bin	-0.22	0
bin	-0.2	0
bin	-0.18	0
bin	-0.16	0
bin	-0.14	0
bin	-0.12	0
bin	-0.1	0
bin	-0.08	0
bin	-0.06	0
bin	-0.04	0
bin	-0.02	0
bin	0	4
bin	0.02	0
bin	0.04	0
bin	0.06	0
bin	0.08	0
bin	0.1	0
bin	0.12	0
bin	0.14	0
bin	0.16	0
bin	0.18	0
bin	0.2	0
bin	0.22	0
bin	0.24	0
bin	0.26	0
bin	0.28	0
bin	0.3	0
bin	0.32	0
bin	0.34	0
bin	0.36	0
bin	0.38	0
bin	0.4	0
bin	0.42	0
bin	0.44	0
bin	0.46	0
bin	0.48	0
bin	0.5	0
scalar Sc2.sensor3.wlan[0].radio radioMode:count 3281
attr interpolationmode sample-hold
attr source radioModeChanged
attr title "Radio mode, count"
scalar Sc2.sensor3.wlan[0].radio receptionState:count 612489
attr interpolationmode sample-hold
attr source receptionStateChanged
attr title "Radio reception state, count"
scalar Sc2.sensor3.wlan[0].radio transmissionState:count 6556
attr interpolationmode sample-hold
attr source transmissionStateChanged
attr title "Radio transmission state, count"
statistic Sc2.sensor3.wlan[0].radio minSnir:histogram
field count 301331
field mean 1015.854659185
field stddev 585.30325637132
field min 0.24894187720447
field max 1681.7708575542
field sum 306108500.30689
field sqrsum 414191348098.12
attr source minimumSnir(packetSentToUpper)
attr title "Min SNIR, histogram"
bin	-inf	0
bin	0	35627
bin	50	0
bin	100	0
bin	150	0
bin	200	0
bin	250	0
bin	300	0
bin	350	26931
bin	400	0
bin	450	0
bin	500	4205
bin	550	44567
bin	600	0
bin	650	0
bin	700	0
bin	750	0
bin	800	136
bin	850	19979
bin	900	9
bin	950	0
bin	1000	0
bin	1050	567
bin	1100	0
bin	1150	0
bin	1200	70993
bin	1250	0
bin	1300	0
bin	1350	0
bin	1400	0
bin	1450	3799
bin	1500	0
bin	1550	0
bin	1600	0
bin	1650	94518
bin	1700	0
bin	1750	0
bin	1800	0
bin	1850	0
bin	1900	0
bin	1950	0
bin	2000	0
bin	2050	0
bin	2100	0
bin	2150	0
statistic Sc2.sensor3.wlan[0].radio packetErrorRate:histogram
field count 301331
field mean 0.11538178082226
field stddev 0.31819814698134
field min 0
field max 1
field sum 34768.107396954
field sqrsum 34521.286950776
attr source packetErrorRate(packetSentToUpper)
attr title "Packet error rate, histogram"
bin	-inf	0
bin	0	268519
bin	1	32812
bin	2	0
statistic Sc2.sensor3.wlan[0].radio bitErrorRate:histogram
field count 0
field mean -nan
field stddev -nan
field min -nan
field max -nan
field sum 0
field sqrsum 0
attr source bitErrorRate(packetSentToUpper)
attr title "Bit error rate, histogram"
bin	-inf	0
bin	0	0
bin	1	0
statistic Sc2.sensor3.wlan[0].radio symbolErrorRate:histogram
field count 0
field mean -nan
field stddev -nan
field min -nan
field max -nan
field sum 0
field sqrsum 0
attr source symbolErrorRate(packetSentToUpper)
attr title "Symbol error rate, histogram"
bin	-inf	0
bin	0	0
bin	1	0
scalar Sc2.sensor3.ipv4.ip packetDropAddressResolutionFailed:count 0
attr interpolationmode none
attr source packetDropReasonIsAddressResolutionFailed(packetDropped)
attr title "packet drop: address resolution failed, count"
scalar Sc2.sensor3.ipv4.ip packetDropAddressResolutionFailed:sum(packetBytes) 0
attr interpolationmode none
attr source packetDropReasonIsAddressResolutionFailed(packetDropped)
attr title "packet drop: address resolution failed, sum(packetBytes)"
scalar Sc2.sensor3.ipv4.ip packetDropHopLimitReached:count 0
attr interpolationmode none
attr source packetDropReasonIsHopLimitReached(packetDropped)
attr title "packet drop: hop limit reached, count"
scalar Sc2.sensor3.ipv4.ip packetDropHopLimitReached:sum(packetBytes) 0
attr interpolationmode none
attr source packetDropReasonIsHopLimitReached(packetDropped)
attr title "packet drop: hop limit reached, sum(packetBytes)"
scalar Sc2.sensor3.ipv4.ip packetDropForwardingDisabled:count 0
attr interpolationmode none
attr source packetDropReasonIsForwardingDisabled(packetDropped)
attr title "packet drop: forwarding disabled, count"
scalar Sc2.sensor3.ipv4.ip packetDropForwardingDisabled:sum(packetBytes) 0
attr interpolationmode none
attr source packetDropReasonIsForwardingDisabled(packetDropped)
attr title "packet drop: forwarding disabled, sum(packetBytes)"
scalar Sc2.sensor3.ipv4.ip packetDropNoInterfaceFound:count 0
attr interpolationmode none
attr source packetDropReasonIsNoInterfaceFound(packetDropped)
attr title "packet drop: no interface found, count"
scalar Sc2.sensor3.ipv4.ip packetDropNoInterfaceFound:sum(packetBytes) 0
attr interpolationmode none
attr source packetDropReasonIsNoInterfaceFound(packetDropped)
attr title "packet drop: no interface found, sum(packetBytes)"
scalar Sc2.sensor3.ipv4.ip packetDropNoRouteFound:count 0
attr interpolationmode none
attr source packetDropReasonIsNoRouteFound(packetDropped)
attr title "packet drop: no route found, count"
scalar Sc2.sensor3.ipv4.ip packetDropNoRouteFound:sum(packetBytes) 0
attr interpolationmode none
attr source packetDropReasonIsNoRouteFound(packetDropped)
attr title "packet drop: no route found, sum(packetBytes)"
scalar Sc2.sensor3.ipv4.ip packetDropUndefined:count 0
attr interpolationmode none
attr source packetDropReasonIsUndefined(packetDropped)
attr title "packet drop: undefined, count"
scalar Sc2.sensor3.ipv4.ip packetDropUndefined:sum(packetBytes) 0
attr interpolationmode none
attr source packetDropReasonIsUndefined(packetDropped)
attr title "packet drop: undefined, sum(packetBytes)"
scalar Sc2.sensor3.udp packetReceived:count 0
attr interpolationmode none
attr source packetReceived
attr title "packets received, count"
scalar Sc2.sensor3.udp packetReceived:sum(packetBytes) 0
attr interpolationmode none
attr source packetReceived
attr title "packets received, sum(packetBytes)"
scalar Sc2.sensor3.udp packetSent:count 1
attr interpolationmode none
attr source packetSent
attr title "packets sent, count"
scalar Sc2.sensor3.udp packetSent:sum(packetBytes) 9383
attr interpolationmode none
attr source packetSent
attr title "packets sent, sum(packetBytes)"
scalar Sc2.sensor3.udp passedUpPk:count 0
attr interpolationmode none
attr source packetSentToUpper
attr title "packets passed up, count"
scalar Sc2.sensor3.udp droppedPkWrongPort:count 0
attr interpolationmode none
attr source packetDropReasonIsNoPortFound(packetDropped)
attr title "packets dropped (wrong port), count"
scalar Sc2.sensor3.udp droppedPkBadChecksum:count 0
attr interpolationmode none
attr source packetDropReasonIsIncorrectlyReceived(packetDropped)
attr title "packets dropped (checksum error), count"
scalar Sc2.sensor3.app[0] "packets sent" 1
scalar Sc2.sensor3.app[0] "packets received" 0
scalar Sc2.sensor3.app[0] packetReceived:count 0
attr interpolationmode none
attr source packetReceived
attr title "packets received, count"
scalar Sc2.sensor3.app[0] packetReceived:sum(packetBytes) 0
attr interpolationmode none
attr source packetReceived
attr title "packets received, sum(packetBytes)"
statistic Sc2.sensor3.app[0] rcvdPkLifetime:stats
field count 0
field mean -nan
field stddev -nan
field min -nan
field max -nan
field sum 0
field sqrsum 0
attr interpolationmode none
attr source dataAge(packetReceived)
attr title "received packet lifetime, stats"
attr unit s
scalar Sc2.sensor3.app[0] packetSent:count 1
attr interpolationmode none
attr source packetSent
attr title "packets sent, count"
scalar Sc2.sensor3.app[0] packetSent:sum(packetBytes) 9375
attr interpolationmode none
attr source packetSent
attr title "packets sent, sum(packetBytes)"
scalar Sc2.sensor4.lo[0].lo rcvdPkFromHl:count 0
attr interpolationmode none
attr source packetReceivedFromUpper
attr title "packets received from higher layer, count"
scalar Sc2.sensor4.lo[0].lo rcvdPkFromHl:sum(packetBytes) 0
attr interpolationmode none
attr source packetReceivedFromUpper
attr title "packets received from higher layer, sum(packetBytes)"
scalar Sc2.sensor4.lo[0].lo passedUpPk:count 0
attr interpolationmode none
attr source packetSentToUpper
attr title "packets passed to higher layer, count"
scalar Sc2.sensor4.lo[0].lo passedUpPk:sum(packetBytes) 0
attr interpolationmode none
attr source packetSentToUpper
attr title "packets passed to higher layer, sum(packetBytes)"
scalar Sc2.sensor4.wlan[0].agent dropConfirm:count 0
attr title "dropped confirms, count"
scalar Sc2.sensor4.wlan[0].agent acceptConfirm:count 3
attr title "accepted confirms, count"
scalar Sc2.sensor4.wlan[0].agent sentRequest:count 110
attr title "sent requests, count"
scalar Sc2.sensor4.wlan[0].mac rcvdPkFromLl:count 292502
attr interpolationmode none
attr source packetReceivedFromLower
attr title "packets received from lower layer, count"
scalar Sc2.sensor4.wlan[0].mac rcvdPkFromLl:sum(packetBytes) 157623575
attr interpolationmode none
attr source packetReceivedFromLower
attr title "packets received from lower layer, sum(packetBytes)"
scalar Sc2.sensor4.wlan[0].mac sentDownPk:count 790
attr interpolationmode none
attr source packetSentToLower
attr title "packets sent to lower layer, count"
scalar Sc2.sensor4.wlan[0].mac sentDownPk:sum(packetBytes) 59280
attr interpolationmode none
attr source packetSentToLower
attr title "packets sent to lower layer, sum(packetBytes)"
scalar Sc2.sensor4.wlan[0].mac rcvdPkFromHl:count 2
attr interpolationmode none
attr source packetReceivedFromUpper
attr title "packets received from higher layer, count"
scalar Sc2.sensor4.wlan[0].mac rcvdPkFromHl:sum(packetBytes) 9439
attr interpolationmode none
attr source packetReceivedFromUpper
attr title "packets received from higher layer, sum(packetBytes)"
scalar Sc2.sensor4.wlan[0].mac passedUpPk:count 0
attr interpolationmode none
attr source packetSentToUpper
attr title "packets passed to higher layer, count"
scalar Sc2.sensor4.wlan[0].mac passedUpPk:sum(packetBytes) 0
attr interpolationmode none
attr source packetSentToUpper
attr title "packets passed to higher layer, sum(packetBytes)"
scalar Sc2.sensor4.wlan[0].mac packetDropIncorrectlyReceived:count 32488
attr interpolationmode none
attr source packetDropReasonIsIncorrectlyReceived(packetDropped)
attr title "packet drop: incorrectly received, count"
scalar Sc2.sensor4.wlan[0].mac packetDropIncorrectlyReceived:sum(packetBytes) 32266981
attr interpolationmode none
attr source packetDropReasonIsIncorrectlyReceived(packetDropped)
attr title "packet drop: incorrectly received, sum(packetBytes)"
scalar Sc2.sensor4.wlan[0].mac packetDropNotAddressedToUs:count 244019
attr interpolationmode none
attr source packetDropReasonIsNotAddressedToUs(packetDropped)
attr title "packet drop: not addressed to us, count"
scalar Sc2.sensor4.wlan[0].mac packetDropNotAddressedToUs:sum(packetBytes) 124589310
attr interpolationmode none
attr source packetDropReasonIsNotAddressedToUs(packetDropped)
attr title "packet drop: not addressed to us, sum(packetBytes)"
scalar Sc2.sensor4.wlan[0].mac packetDropQueueOverflow:count 0
attr interpolationmode none
attr source packetDropReasonIsQueueOverflow(packetDropped)
attr title "packet drop: queue overflow, count"
scalar Sc2.sensor4.wlan[0].mac packetDropQueueOverflow:sum(packetBytes) 0
attr interpolationmode none
attr source packetDropReasonIsQueueOverflow(packetDropped)
attr title "packet drop: queue overflow, sum(packetBytes)"
scalar Sc2.sensor4.wlan[0].mac packetDropRetryLimitReached:count 109
attr interpolationmode none
attr source packetDropReasonIsRetryLimitReached(packetDropped)
attr title "packet drop: retry limit reached, count"
scalar Sc2.sensor4.wlan[0].mac packetDropRetryLimitReached:sum(packetBytes) 6210
attr interpolationmode none
attr source packetDropReasonIsRetryLimitReached(packetDropped)
attr title "packet drop: retry limit reached, sum(packetBytes)"
scalar Sc2.sensor4.wlan[0].mac linkBroken:count 109
attr interpolationmode none
attr source linkBroken
attr title "link break, count"
statistic Sc2.sensor4.wlan[0].radio radioChannel:histogram
field count 4
field mean 0
field stddev 0
field min 0
field max 0
field sum 0
field sqrsum 0
attr interpolationmode sample-hold
attr source radioChannelChanged
attr title "Radio channel, histogram"
bin	-inf	0
bin	-0.5	0
bin	-0.48	0
bin	-0.46	0
bin	-0.44	0
bin	-0.42	0
bin	-0.4	0
bin	-0.38	0
bin	-0.36	0
bin	-0.34	0
bin	-0.32	0
bin	-0.3	0
bin	-0.28	0
bin	-0.26	0
bin	-0.24	0
bin	-0.22	0
bin	-0.2	0
bin	-0.18	0
bin	-0.16	0
bin	-0.14	0
bin	-0.12	0
bin	-0.1	0
bin	-0.08	0
bin	-0.06	0
bin	-0.04	0
bin	-0.02	0
bin	0	4
bin	0.02	0
bin	0.04	0
bin	0.06	0
bin	0.08	0
bin	0.1	0
bin	0.12	0
bin	0.14	0
bin	0.16	0
bin	0.18	0
bin	0.2	0
bin	0.22	0
bin	0.24	0
bin	0.26	0
bin	0.28	0
bin	0.3	0
bin	0.32	0
bin	0.34	0
bin	0.36	0
bin	0.38	0
bin	0.4	0
bin	0.42	0
bin	0.44	0
bin	0.46	0
bin	0.48	0
bin	0.5	0
scalar Sc2.sensor4.wlan[0].radio radioMode:count 1583
attr interpolationmode sample-hold
attr source radioModeChanged
attr title "Radio mode, count"
scalar Sc2.sensor4.wlan[0].radio receptionState:count 603902
attr interpolationmode sample-hold
attr source receptionStateChanged
attr title "Radio reception state, count"
scalar Sc2.sensor4.wlan[0].radio transmissionState:count 3160
attr interpolationmode sample-hold
attr source transmissionStateChanged
attr title "Radio transmission state, count"
statistic Sc2.sensor4.wlan[0].radio minSnir:histogram
field count 292502
field mean 502.92209447489
field stddev 325.89374267372
field min 0.18779472435387
field max 2834.8508204855
field sum 147105718.4781
field sqrsum 105048291220.78
attr source minimumSnir(packetSentToUpper)
attr title "Min SNIR, histogram"
bin	-inf	0
bin	0	32515
bin	50	0
bin	100	0
bin	150	0
bin	200	0
bin	250	0
bin	300	0
bin	350	45740
bin	400	44561
bin	450	94496
bin	500	0
bin	550	19968
bin	600	0
bin	650	0
bin	700	0
bin	750	0
bin	800	25232
bin	850	0
bin	900	21969
bin	950	9
bin	1000	0
bin	1050	0
bin	1100	0
bin	1150	0
bin	1200	3919
bin	1250	0
bin	1300	0
bin	1350	0
bin	1400	0
bin	1450	0
bin	1500	0
bin	1550	0
bin	1600	0
bin	1650	0
bin	1700	0
bin	1750	0
bin	1800	0
bin	1850	0
bin	1900	0
bin	1950	0
bin	2000	0
bin	2050	0
bin	2100	0
bin	2150	0
bin	2200	0
bin	2250	0
bin	2300	4081
bin	2350	0
bin	2400	0
bin	2450	0
bin	2500	0
bin	2550	0
bin	2600	0
bin	2650	0
bin	2700	0
bin	2750	0
bin	2800	12
bin	2850	0
bin	2900	0
bin	2950	0
bin	3000	0
bin	3050	0
bin	3100	0
bin	3150	0
bin	3200	0
bin	3250	0
bin	3300	0
bin	3350	0
bin	3400	0
bin	3450	0
bin	3500	0
bin	3550	0
statistic Sc2.sensor4.wlan[0].radio packetErrorRate:histogram
field count 292502
field mean 0.11107438200715
field stddev 0.31422014554601
field min 0
field max 1
field sum 32489.478885857
field sqrsum 32488.630234366
attr source packetErrorRate(packetSentToUpper)
attr title "Packet error rate, histogram"
bin	-inf	0
bin	0	260009
bin	0.02	0
bin	0.04	0
bin	0.06	0
bin	0.08	2
bin	0.1	0
bin	0.12	0
bin	0.14	0
bin	0.16	0
bin	0.18	0
bin	0.2	0
bin	0.22	0
bin	0.24	0
bin	0.26	0
bin	0.28	2
bin	0.3	0
bin	0.32	0
bin	0.34	0
bin	0.36	0
bin	0.38	0
bin	0.4	0
bin	0.42	0
bin	0.44	0
bin	0.46	0
bin	0.48	0
bin	0.5	0
bin	0.52	0
bin	0.54	0
bin	0.56	0
bin	0.58	0
bin	0.6	0
bin	0.62	0
bin	0.64	0
bin	0.66	0
bin	0.68	0
bin	0.7	0
bin	0.72	0
bin	0.74	0
bin	0.76	0
bin	0.78	0
bin	0.8	0
bin	0.82	0
bin	0.84	0
bin	0.86	0
bin	0.88	0
bin	0.9	0
bin	0.92	0
bin	0.94	0
bin	0.96	8
bin	0.98	205
bin	1	32276
bin	1.02	0
bin	1.04	0
bin	1.06	0
bin	1.08	0
bin	1.1	0
bin	1.12	0
bin	1.14	0
bin	1.16	0
bin	1.18	0
bin	1.2	0
bin	1.22	0
bin	1.24	0
bin	1.26	0
statistic Sc2.sensor4.wlan[0].radio bitErrorRate:histogram
field count 0
field mean -nan
field stddev -nan
field min -nan
field max -nan
field sum 0
field sqrsum 0
attr source bitErrorRate(packetSentToUpper)
attr title "Bit error rate, histogram"
bin	-inf	0
bin	0	0
bin	1	0
statistic Sc2.sensor4.wlan[0].radio symbolErrorRate:histogram
field count 0
field mean -nan
field stddev -nan
field min -nan
field max -nan
field sum 0
field sqrsum 0
attr source symbolErrorRate(packetSentToUpper)
attr title "Symbol error rate, histogram"
bin	-inf	0
bin	0	0
bin	1	0
scalar Sc2.sensor4.ipv4.ip packetDropAddressResolutionFailed:count 0
attr interpolationmode none
attr source packetDropReasonIsAddressResolutionFailed(packetDropped)
attr title "packet drop: address resolution failed, count"
scalar Sc2.sensor4.ipv4.ip packetDropAddressResolutionFailed:sum(packetBytes) 0
attr interpolationmode none
attr source packetDropReasonIsAddressResolutionFailed(packetDropped)
attr title "packet drop: address resolution failed, sum(packetBytes)"
scalar Sc2.sensor4.ipv4.ip packetDropHopLimitReached:count 0
attr interpolationmode none
attr source packetDropReasonIsHopLimitReached(packetDropped)
attr title "packet drop: hop limit reached, count"
scalar Sc2.sensor4.ipv4.ip packetDropHopLimitReached:sum(packetBytes) 0
attr interpolationmode none
attr source packetDropReasonIsHopLimitReached(packetDropped)
attr title "packet drop: hop limit reached, sum(packetBytes)"
scalar Sc2.sensor4.ipv4.ip packetDropForwardingDisabled:count 0
attr interpolationmode none
attr source packetDropReasonIsForwardingDisabled(packetDropped)
attr title "packet drop: forwarding disabled, count"
scalar Sc2.sensor4.ipv4.ip packetDropForwardingDisabled:sum(packetBytes) 0
attr interpolationmode none
attr source packetDropReasonIsForwardingDisabled(packetDropped)
attr title "packet drop: forwarding disabled, sum(packetBytes)"
scalar Sc2.sensor4.ipv4.ip packetDropNoInterfaceFound:count 0
attr interpolationmode none
attr source packetDropReasonIsNoInterfaceFound(packetDropped)
attr title "packet drop: no interface found, count"
scalar Sc2.sensor4.ipv4.ip packetDropNoInterfaceFound:sum(packetBytes) 0
attr interpolationmode none
attr source packetDropReasonIsNoInterfaceFound(packetDropped)
attr title "packet drop: no interface found, sum(packetBytes)"
scalar Sc2.sensor4.ipv4.ip packetDropNoRouteFound:count 0
attr interpolationmode none
attr source packetDropReasonIsNoRouteFound(packetDropped)
attr title "packet drop: no route found, count"
scalar Sc2.sensor4.ipv4.ip packetDropNoRouteFound:sum(packetBytes) 0
attr interpolationmode none
attr source packetDropReasonIsNoRouteFound(packetDropped)
attr title "packet drop: no route found, sum(packetBytes)"
scalar Sc2.sensor4.ipv4.ip packetDropUndefined:count 0
attr interpolationmode none
attr source packetDropReasonIsUndefined(packetDropped)
attr title "packet drop: undefined, count"
scalar Sc2.sensor4.ipv4.ip packetDropUndefined:sum(packetBytes) 0
attr interpolationmode none
attr source packetDropReasonIsUndefined(packetDropped)
attr title "packet drop: undefined, sum(packetBytes)"
scalar Sc2.sensor4.udp packetReceived:count 0
attr interpolationmode none
attr source packetReceived
attr title "packets received, count"
scalar Sc2.sensor4.udp packetReceived:sum(packetBytes) 0
attr interpolationmode none
attr source packetReceived
attr title "packets received, sum(packetBytes)"
scalar Sc2.sensor4.udp packetSent:count 1
attr interpolationmode none
attr source packetSent
attr title "packets sent, count"
scalar Sc2.sensor4.udp packetSent:sum(packetBytes) 9383
attr interpolationmode none
attr source packetSent
attr title "packets sent, sum(packetBytes)"
scalar Sc2.sensor4.udp passedUpPk:count 0
attr interpolationmode none
attr source packetSentToUpper
attr title "packets passed up, count"
scalar Sc2.sensor4.udp droppedPkWrongPort:count 0
attr interpolationmode none
attr source packetDropReasonIsNoPortFound(packetDropped)
attr title "packets dropped (wrong port), count"
scalar Sc2.sensor4.udp droppedPkBadChecksum:count 0
attr interpolationmode none
attr source packetDropReasonIsIncorrectlyReceived(packetDropped)
attr title "packets dropped (checksum error), count"
scalar Sc2.sensor4.app[0] "packets sent" 1
scalar Sc2.sensor4.app[0] "packets received" 0
scalar Sc2.sensor4.app[0] packetReceived:count 0
attr interpolationmode none
attr source packetReceived
attr title "packets received, count"
scalar Sc2.sensor4.app[0] packetReceived:sum(packetBytes) 0
attr interpolationmode none
attr source packetReceived
attr title "packets received, sum(packetBytes)"
statistic Sc2.sensor4.app[0] rcvdPkLifetime:stats
field count 0
field mean -nan
field stddev -nan
field min -nan
field max -nan
field sum 0
field sqrsum 0
attr interpolationmode none
attr source dataAge(packetReceived)
attr title "received packet lifetime, stats"
attr unit s
scalar Sc2.sensor4.app[0] packetSent:count 1
attr interpolationmode none
attr source packetSent
attr title "packets sent, count"
scalar Sc2.sensor4.app[0] packetSent:sum(packetBytes) 9375
attr interpolationmode none
attr source packetSent
attr title "packets sent, sum(packetBytes)"
scalar Sc2.sensor5.lo[0].lo rcvdPkFromHl:count 0
attr interpolationmode none
attr source packetReceivedFromUpper
attr title "packets received from higher layer, count"
scalar Sc2.sensor5.lo[0].lo rcvdPkFromHl:sum(packetBytes) 0
attr interpolationmode none
attr source packetReceivedFromUpper
attr title "packets received from higher layer, sum(packetBytes)"
scalar Sc2.sensor5.lo[0].lo passedUpPk:count 0
attr interpolationmode none
attr source packetSentToUpper
attr title "packets passed to higher layer, count"
scalar Sc2.sensor5.lo[0].lo passedUpPk:sum(packetBytes) 0
attr interpolationmode none
attr source packetSentToUpper
attr title "packets passed to higher layer, sum(packetBytes)"
scalar Sc2.sensor5.wlan[0].agent dropConfirm:count 0
attr title "dropped confirms, count"
scalar Sc2.sensor5.wlan[0].agent acceptConfirm:count 3
attr title "accepted confirms, count"
scalar Sc2.sensor5.wlan[0].agent sentRequest:count 57
attr title "sent requests, count"
scalar Sc2.sensor5.wlan[0].mac rcvdPkFromLl:count 297891
attr interpolationmode none
attr source packetReceivedFromLower
attr title "packets received from lower layer, count"
scalar Sc2.sensor5.wlan[0].mac rcvdPkFromLl:sum(packetBytes) 159607926
attr interpolationmode none
attr source packetReceivedFromLower
attr title "packets received from lower layer, sum(packetBytes)"
scalar Sc2.sensor5.wlan[0].mac sentDownPk:count 958
attr interpolationmode none
attr source packetSentToLower
attr title "packets sent to lower layer, count"
scalar Sc2.sensor5.wlan[0].mac sentDownPk:sum(packetBytes) 745726
attr interpolationmode none
attr source packetSentToLower
attr title "packets sent to lower layer, sum(packetBytes)"
scalar Sc2.sensor5.wlan[0].mac rcvdPkFromHl:count 86
attr interpolationmode none
attr source packetReceivedFromUpper
attr title "packets received from higher layer, count"
scalar Sc2.sensor5.wlan[0].mac rcvdPkFromHl:sum(packetBytes) 405877
attr interpolationmode none
attr source packetReceivedFromUpper
attr title "packets received from higher layer, sum(packetBytes)"
scalar Sc2.sensor5.wlan[0].mac passedUpPk:count 0
attr interpolationmode none
attr source packetSentToUpper
attr title "packets passed to higher layer, count"
scalar Sc2.sensor5.wlan[0].mac passedUpPk:sum(packetBytes) 0
attr interpolationmode none
attr source packetSentToUpper
attr title "packets passed to higher layer, sum(packetBytes)"
scalar Sc2.sensor5.wlan[0].mac packetDropIncorrectlyReceived:count 34092
attr interpolationmode none
attr source packetDropReasonIsIncorrectlyReceived(packetDropped)
attr title "packet drop: incorrectly received, count"
scalar Sc2.sensor5.wlan[0].mac packetDropIncorrectlyReceived:sum(packetBytes) 32079647
attr interpolationmode none
attr source packetDropReasonIsIncorrectlyReceived(packetDropped)
attr title "packet drop: incorrectly received, sum(packetBytes)"
scalar Sc2.sensor5.wlan[0].mac packetDropNotAddressedToUs:count 248260
attr interpolationmode none
attr source packetDropReasonIsNotAddressedToUs(packetDropped)
attr title "packet drop: not addressed to us, count"
scalar Sc2.sensor5.wlan[0].mac packetDropNotAddressedToUs:sum(packetBytes) 126794351
attr interpolationmode none
attr source packetDropReasonIsNotAddressedToUs(packetDropped)
attr title "packet drop: not addressed to us, sum(packetBytes)"
scalar Sc2.sensor5.wlan[0].mac packetDropQueueOverflow:count 0
attr interpolationmode none
attr source packetDropReasonIsQueueOverflow(packetDropped)
attr title "packet drop: queue overflow, count"
scalar Sc2.sensor5.wlan[0].mac packetDropQueueOverflow:sum(packetBytes) 0
attr interpolationmode none
attr source packetDropReasonIsQueueOverflow(packetDropped)
attr title "packet drop: queue overflow, sum(packetBytes)"
scalar Sc2.sensor5.wlan[0].mac packetDropRetryLimitReached:count 58
attr interpolationmode none
attr source packetDropReasonIsRetryLimitReached(packetDropped)
attr title "packet drop: retry limit reached, count"
scalar Sc2.sensor5.wlan[0].mac packetDropRetryLimitReached:sum(packetBytes) 7620
attr interpolationmode none
attr source packetDropReasonIsRetryLimitReached(packetDropped)
attr title "packet drop: retry limit reached, sum(packetBytes)"
scalar Sc2.sensor5.wlan[0].mac linkBroken:count 58
attr interpolationmode none
attr source linkBroken
attr title "link break, count"
statistic Sc2.sensor5.wlan[0].radio radioChannel:histogram
field count 4
field mean 0
field stddev 0
field min 0
field max 0
field sum 0
field sqrsum 0
attr interpolationmode sample-hold
attr source radioChannelChanged
attr title "Radio channel, histogram"
bin	-inf	0
bin	-0.5	0
bin	-0.48	0
bin	-0.46	0
bin	-0.44	0
bin	-0.42	0
bin	-0.4	0
bin	-0.38	0
bin	-0.36	0
bin	-0.34	0
bin	-0.32	0
bin	-0.3	0
bin	-0.28	0
bin	-0.26	0
bin	-0.24	0
bin	-0.22	0
bin	-0.2	0
bin	-0.18	0
bin	-0.16	0
bin	-0.14	0
bin	-0.12	0
bin	-0.1	0
bin	-0.08	0
bin	-0.06	0
bin	-0.04	0
bin	-0.02	0
bin	0	4
bin	0.02	0
bin	0.04	0
bin	0.06	0
bin	0.08	0
bin	0.1	0
bin	0.12	0
bin	0.14	0
bin	0.16	0
bin	0.18	0
bin	0.2	0
bin	0.22	0
bin	0.24	0
bin	0.26	0
bin	0.28	0
bin	0.3	0
bin	0.32	0
bin	0.34	0
bin	0.36	0
bin	0.38	0
bin	0.4	0
bin	0.42	0
bin	0.44	0
bin	0.46	0
bin	0.48	0
bin	0.5	0
scalar Sc2.sensor5.wlan[0].radio radioMode:count 1919
attr interpolationmode sample-hold
attr source radioModeChanged
attr title "Radio mode, count"
scalar Sc2.sensor5.wlan[0].radio receptionState:count 604739
attr interpolationmode sample-hold
attr source receptionStateChanged
attr title "Radio reception state, count"
scalar Sc2.sensor5.wlan[0].radio transmissionState:count 3832
attr interpolationmode sample-hold
attr source transmissionStateChanged
attr title "Radio transmission state, count"
statistic Sc2.sensor5.wlan[0].radio minSnir:histogram
field count 297891
field mean 782.15537329249
field stddev 682.28373523367
field min 0.16855403976243
field max 2013.2127818746
field sum 232997046.30547
field sqrsum 320910991927.21
attr source minimumSnir(packetSentToUpper)
attr title "Min SNIR, histogram"
bin	-inf	0
bin	0	34528
bin	50	0
bin	100	0
bin	150	0
bin	200	0
bin	250	0
bin	300	45737
bin	350	0
bin	400	4403
bin	450	94500
bin	500	279
bin	550	23021
bin	600	0
bin	650	706
bin	700	0
bin	750	0
bin	800	0
bin	850	25234
bin	900	0
bin	950	0
bin	1000	0
bin	1050	1093
bin	1100	0
bin	1150	0
bin	1200	0
bin	1250	0
bin	1300	0
bin	1350	0
bin	1400	0
bin	1450	0
bin	1500	0
bin	1550	0
bin	1600	0
bin	1650	0
bin	1700	0
bin	1750	3698
bin	1800	0
bin	1850	136
bin	1900	0
bin	1950	44581
bin	2000	19975
bin	2050	0
bin	2100	0
bin	2150	0
bin	2200	0
bin	2250	0
bin	2300	0
bin	2350	0
bin	2400	0
bin	2450	0
bin	2500	0
bin	2550	0
statistic Sc2.sensor5.wlan[0].radio packetErrorRate:histogram
field count 297891
field mean 0.11446241837422
field stddev 0.31706262715443
field min 0
field max 1
field sum 34097.324271916
field sqrsum 33849.35948055
attr source packetErrorRate(packetSentToUpper)
attr title "Packet error rate, histogram"
bin	-inf	0
bin	0	263363
bin	0.02	12
bin	0.04	5
bin	0.06	0
bin	0.08	1
bin	0.1	3
bin	0.12	0
bin	0.14	0
bin	0.16	0
bin	0.18	2
bin	0.2	0
bin	0.22	0
bin	0.24	0
bin	0.26	0
bin	0.28	0
bin	0.3	0
bin	0.32	64
bin	0.34	0
bin	0.36	0
bin	0.38	0
bin	0.4	1
bin	0.42	0
bin	0.44	4
bin	0.46	0
bin	0.48	0
bin	0.5	0
bin	0.52	0
bin	0.54	0
bin	0.56	0
bin	0.58	596
bin	0.6	1
bin	0.62	0
bin	0.64	1
bin	0.66	0
bin	0.68	125
bin	0.7	2
bin	0.72	210
bin	0.74	0
bin	0.76	0
bin	0.78	1
bin	0.8	1
bin	0.82	0
bin	0.84	0
bin	0.86	23
bin	0.88	0
bin	0.9	6
bin	0.92	2
bin	0.94	264
bin	0.96	0
bin	0.98	1612
bin	1	31592
bin	1.02	0
bin	1.04	0
bin	1.06	0
bin	1.08	0
bin	1.1	0
bin	1.12	0
bin	1.14	0
bin	1.16	0
bin	1.18	0
bin	1.2	0
bin	1.22	0
bin	1.24	0
bin	1.26	0
statistic Sc2.sensor5.wlan[0].radio bitErrorRate:histogram
field count 0
field mean -nan
field stddev -nan
field min -nan
field max -nan
field sum 0
field sqrsum 0
attr source bitErrorRate(packetSentToUpper)
attr title "Bit error rate, histogram"
bin	-inf	0
bin	0	0
bin	1	0
statistic Sc2.sensor5.wlan[0].radio symbolErrorRate:histogram
field count 0
field mean -nan
field stddev -nan
field min -nan
field max -nan
field sum 0
field sqrsum 0
attr source symbolErrorRate(packetSentToUpper)
attr title "Symbol error rate, histogram"
bin	-inf	0
bin	0	0
bin	1	0
scalar Sc2.sensor5.ipv4.ip packetDropAddressResolutionFailed:count 0
attr interpolationmode none
attr source packetDropReasonIsAddressResolutionFailed(packetDropped)
attr title "packet drop: address resolution failed, count"
scalar Sc2.sensor5.ipv4.ip packetDropAddressResolutionFailed:sum(packetBytes) 0
attr interpolationmode none
attr source packetDropReasonIsAddressResolutionFailed(packetDropped)
attr title "packet drop: address resolution failed, sum(packetBytes)"
scalar Sc2.sensor5.ipv4.ip packetDropHopLimitReached:count 0
attr interpolationmode none
attr source packetDropReasonIsHopLimitReached(packetDropped)
attr title "packet drop: hop limit reached, count"
scalar Sc2.sensor5.ipv4.ip packetDropHopLimitReached:sum(packetBytes) 0
attr interpolationmode none
attr source packetDropReasonIsHopLimitReached(packetDropped)
attr title "packet drop: hop limit reached, sum(packetBytes)"
scalar Sc2.sensor5.ipv4.ip packetDropForwardingDisabled:count 0
attr interpolationmode none
attr source packetDropReasonIsForwardingDisabled(packetDropped)
attr title "packet drop: forwarding disabled, count"
scalar Sc2.sensor5.ipv4.ip packetDropForwardingDisabled:sum(packetBytes) 0
attr interpolationmode none
attr source packetDropReasonIsForwardingDisabled(packetDropped)
attr title "packet drop: forwarding disabled, sum(packetBytes)"
scalar Sc2.sensor5.ipv4.ip packetDropNoInterfaceFound:count 0
attr interpolationmode none
attr source packetDropReasonIsNoInterfaceFound(packetDropped)
attr title "packet drop: no interface found, count"
scalar Sc2.sensor5.ipv4.ip packetDropNoInterfaceFound:sum(packetBytes) 0
attr interpolationmode none
attr source packetDropReasonIsNoInterfaceFound(packetDropped)
attr title "packet drop: no interface found, sum(packetBytes)"
scalar Sc2.sensor5.ipv4.ip packetDropNoRouteFound:count 0
attr interpolationmode none
attr source packetDropReasonIsNoRouteFound(packetDropped)
attr title "packet drop: no route found, count"
scalar Sc2.sensor5.ipv4.ip packetDropNoRouteFound:sum(packetBytes) 0
attr interpolationmode none
attr source packetDropReasonIsNoRouteFound(packetDropped)
attr title "packet drop: no route found, sum(packetBytes)"
scalar Sc2.sensor5.ipv4.ip packetDropUndefined:count 0
attr interpolationmode none
attr source packetDropReasonIsUndefined(packetDropped)
attr title "packet drop: undefined, count"
scalar Sc2.sensor5.ipv4.ip packetDropUndefined:sum(packetBytes) 0
attr interpolationmode none
attr source packetDropReasonIsUndefined(packetDropped)
attr title "packet drop: undefined, sum(packetBytes)"
scalar Sc2.sensor5.udp packetReceived:count 0
attr interpolationmode none
attr source packetReceived
attr title "packets received, count"
scalar Sc2.sensor5.udp packetReceived:sum(packetBytes) 0
attr interpolationmode none
attr source packetReceived
attr title "packets received, sum(packetBytes)"
scalar Sc2.sensor5.udp packetSent:count 43
attr interpolationmode none
attr source packetSent
attr title "packets sent, count"
scalar Sc2.sensor5.udp packetSent:sum(packetBytes) 403469
attr interpolationmode none
attr source packetSent
attr title "packets sent, sum(packetBytes)"
scalar Sc2.sensor5.udp passedUpPk:count 0
attr interpolationmode none
attr source packetSentToUpper
attr title "packets passed up, count"
scalar Sc2.sensor5.udp droppedPkWrongPort:count 0
attr interpolationmode none
attr source packetDropReasonIsNoPortFound(packetDropped)
attr title "packets dropped (wrong port), count"
scalar Sc2.sensor5.udp droppedPkBadChecksum:count 0
attr interpolationmode none
attr source packetDropReasonIsIncorrectlyReceived(packetDropped)
attr title "packets dropped (checksum error), count"
scalar Sc2.sensor5.app[0] "packets sent" 43
scalar Sc2.sensor5.app[0] "packets received" 0
scalar Sc2.sensor5.app[0] packetReceived:count 0
attr interpolationmode none
attr source packetReceived
attr title "packets received, count"
scalar Sc2.sensor5.app[0] packetReceived:sum(packetBytes) 0
attr interpolationmode none
attr source packetReceived
attr title "packets received, sum(packetBytes)"
statistic Sc2.sensor5.app[0] rcvdPkLifetime:stats
field count 0
field mean -nan
field stddev -nan
field min -nan
field max -nan
field sum 0
field sqrsum 0
attr interpolationmode none
attr source dataAge(packetReceived)
attr title "received packet lifetime, stats"
attr unit s
scalar Sc2.sensor5.app[0] packetSent:count 43
attr interpolationmode none
attr source packetSent
attr title "packets sent, count"
scalar Sc2.sensor5.app[0] packetSent:sum(packetBytes) 403125
attr interpolationmode none
attr source packetSent
attr title "packets sent, sum(packetBytes)"
scalar Sc2.sensor6.lo[0].lo rcvdPkFromHl:count 0
attr interpolationmode none
attr source packetReceivedFromUpper
attr title "packets received from higher layer, count"
scalar Sc2.sensor6.lo[0].lo rcvdPkFromHl:sum(packetBytes) 0
attr interpolationmode none
attr source packetReceivedFromUpper
attr title "packets received from higher layer, sum(packetBytes)"
scalar Sc2.sensor6.lo[0].lo passedUpPk:count 0
attr interpolationmode none
attr source packetSentToUpper
attr title "packets passed to higher layer, count"
scalar Sc2.sensor6.lo[0].lo passedUpPk:sum(packetBytes) 0
attr interpolationmode none
attr source packetSentToUpper
attr title "packets passed to higher layer, sum(packetBytes)"
scalar Sc2.sensor6.wlan[0].agent dropConfirm:count 0
attr title "dropped confirms, count"
scalar Sc2.sensor6.wlan[0].agent acceptConfirm:count 3
attr title "accepted confirms, count"
scalar Sc2.sensor6.wlan[0].agent sentRequest:count 3
attr title "sent requests, count"
scalar Sc2.sensor6.wlan[0].mac rcvdPkFromLl:count 103774
attr interpolationmode none
attr source packetReceivedFromLower
attr title "packets received from lower layer, count"
scalar Sc2.sensor6.wlan[0].mac rcvdPkFromLl:sum(packetBytes) 64499635
attr interpolationmode none
attr source packetReceivedFromLower
attr title "packets received from lower layer, sum(packetBytes)"
scalar Sc2.sensor6.wlan[0].mac sentDownPk:count 602
attr interpolationmode none
attr source packetSentToLower
attr title "packets sent to lower layer, count"
scalar Sc2.sensor6.wlan[0].mac sentDownPk:sum(packetBytes) 784160
attr interpolationmode none
attr source packetSentToLower
attr title "packets sent to lower layer, sum(packetBytes)"
scalar Sc2.sensor6.wlan[0].mac rcvdPkFromHl:count 78
attr interpolationmode none
attr source packetReceivedFromUpper
attr title "packets received from higher layer, count"
scalar Sc2.sensor6.wlan[0].mac rcvdPkFromHl:sum(packetBytes) 368121
attr interpolationmode none
attr source packetReceivedFromUpper
attr title "packets received from higher layer, sum(packetBytes)"
scalar Sc2.sensor6.wlan[0].mac passedUpPk:count 0
attr interpolationmode none
attr source packetSentToUpper
attr title "packets passed to higher layer, count"
scalar Sc2.sensor6.wlan[0].mac passedUpPk:sum(packetBytes) 0
attr interpolationmode none
attr source packetSentToUpper
attr title "packets passed to higher layer, sum(packetBytes)"
scalar Sc2.sensor6.wlan[0].mac packetDropIncorrectlyReceived:count 12437
attr interpolationmode none
attr source packetDropReasonIsIncorrectlyReceived(packetDropped)
attr title "packet drop: incorrectly received, count"
scalar Sc2.sensor6.wlan[0].mac packetDropIncorrectlyReceived:sum(packetBytes) 14983617
attr interpolationmode none
attr source packetDropReasonIsIncorrectlyReceived(packetDropped)
attr title "packet drop: incorrectly received, sum(packetBytes)"
scalar Sc2.sensor6.wlan[0].mac packetDropNotAddressedToUs:count 82373
attr interpolationmode none
attr source packetDropReasonIsNotAddressedToUs(packetDropped)
attr title "packet drop: not addressed to us, count"
scalar Sc2.sensor6.wlan[0].mac packetDropNotAddressedToUs:sum(packetBytes) 49096102
attr interpolationmode none
attr source packetDropReasonIsNotAddressedToUs(packetDropped)
attr title "packet drop: not addressed to us, sum(packetBytes)"
scalar Sc2.sensor6.wlan[0].mac packetDropQueueOverflow:count 0
attr interpolationmode none
attr source packetDropReasonIsQueueOverflow(packetDropped)
attr title "packet drop: queue overflow, count"
scalar Sc2.sensor6.wlan[0].mac packetDropQueueOverflow:sum(packetBytes) 0
attr interpolationmode none
attr source packetDropReasonIsQueueOverflow(packetDropped)
attr title "packet drop: queue overflow, sum(packetBytes)"
scalar Sc2.sensor6.wlan[0].mac packetDropRetryLimitReached:count 13
attr interpolationmode none
attr source packetDropReasonIsRetryLimitReached(packetDropped)
attr title "packet drop: retry limit reached, count"
scalar Sc2.sensor6.wlan[0].mac packetDropRetryLimitReached:sum(packetBytes) 19500
attr interpolationmode none
attr source packetDropReasonIsRetryLimitReached(packetDropped)
attr title "packet drop: retry limit reached, sum(packetBytes)"
scalar Sc2.sensor6.wlan[0].mac linkBroken:count 13
attr interpolationmode none
attr source linkBroken
attr title "link break, count"
statistic Sc2.sensor6.wlan[0].radio radioChannel:histogram
field count 4
field mean 0
field stddev 0
field min 0
field max 0
field sum 0
field sqrsum 0
attr interpolationmode sample-hold
attr source radioChannelChanged
attr title "Radio channel, histogram"
bin	-inf	0
bin	-0.5	0
bin	-0.48	0
bin	-0.46	0
bin	-0.44	0
bin	-0.42	0
bin	-0.4	0
bin	-0.38	0
bin	-0.36	0
bin	-0.34	0
bin	-0.32	0
bin	-0.3	0
bin	-0.28	0
bin	-0.26	0
bin	-0.24	0
bin	-0.22	0
bin	-0.2	0
bin	-0.18	0
bin	-0.16	0
bin	-0.14	0
bin	-0.12	0
bin	-0.1	0
bin	-0.08	0
bin	-0.06	0
bin	-0.04	0
bin	-0.02	0
bin	0	4
bin	0.02	0
bin	0.04	0
bin	0.06	0
bin	0.08	0
bin	0.1	0
bin	0.12	0
bin	0.14	0
bin	0.16	0
bin	0.18	0
bin	0.2	0
bin	0.22	0
bin	0.24	0
bin	0.26	0
bin	0.28	0
bin	0.3	0
bin	0.32	0
bin	0.34	0
bin	0.36	0
bin	0.38	0
bin	0.4	0
bin	0.42	0
bin	0.44	0
bin	0.46	0
bin	0.48	0
bin	0.5	0
scalar Sc2.sensor6.wlan[0].radio radioMode:count 1207
attr interpolationmode sample-hold
attr source radioModeChanged
attr title "Radio mode, count"
scalar Sc2.sensor6.wlan[0].radio receptionState:count 231692
attr interpolationmode sample-hold
attr source receptionStateChanged
attr title "Radio reception state, count"
scalar Sc2.sensor6.wlan[0].radio transmissionState:count 2408
attr interpolationmode sample-hold
attr source transmissionStateChanged
attr title "Radio transmission state, count"
statistic Sc2.sensor6.wlan[0].radio minSnir:histogram
field count 103774
field mean 2425.2741675734
field stddev 1798.6961485647
field min 0.1637711029151
field max 4625.0256805269
field sum 251680401.46577
field sqrsum 946131576106.53
attr source minimumSnir(packetSentToUpper)
attr title "Min SNIR, histogram"
bin	-inf	0
bin	0	17496
bin	100	0
bin	200	0
bin	300	12
bin	400	0
bin	500	21978
bin	600	3917
bin	700	0
bin	800	0
bin	900	0
bin	1000	0
bin	1100	0
bin	1200	0
bin	1300	0
bin	1400	0
bin	1500	0
bin	1600	0
bin	1700	0
bin	1800	0
bin	1900	0
bin	2000	0
bin	2100	0
bin	2200	0
bin	2300	0
bin	2400	0
bin	2500	0
bin	2600	0
bin	2700	0
bin	2800	0
bin	2900	0
bin	3000	0
bin	3100	0
bin	3200	0
bin	3300	0
bin	3400	0
bin	3500	41651
bin	3600	0
bin	3700	0
bin	3800	0
bin	3900	0
bin	4000	0
bin	4100	0
bin	4200	0
bin	4300	0
bin	4400	0
bin	4500	0
bin	4600	18720
bin	4700	0
bin	4800	0
bin	4900	0
bin	5000	0
bin	5100	0
bin	5200	0
bin	5300	0
bin	5400	0
bin	5500	0
bin	5600	0
bin	5700	0
bin	5800	0
statistic Sc2.sensor6.wlan[0].radio packetErrorRate:histogram
field count 103774
field mean 0.1198393452591
field stddev 0.32348019761243
field min 0
field max 1
field sum 12436.208214918
field sqrsum 12349.095475227
attr source packetErrorRate(packetSentToUpper)
attr title "Packet error rate, histogram"
bin	-inf	0
bin	0	90837
bin	0.02	146
bin	0.04	248
bin	0.06	16
bin	0.08	1
bin	0.1	1
bin	0.12	0
bin	0.14	0
bin	0.16	3
bin	0.18	0
bin	0.2	0
bin	0.22	0
bin	0.24	1
bin	0.26	1
bin	0.28	0
bin	0.3	5
bin	0.32	0
bin	0.34	18
bin	0.36	0
bin	0.38	3
bin	0.4	0
bin	0.42	4
bin	0.44	0
bin	0.46	0
bin	0.48	0
bin	0.5	0
bin	0.52	1
bin	0.54	1
bin	0.56	0
bin	0.58	0
bin	0.6	0
bin	0.62	0
bin	0.64	0
bin	0.66	243
bin	0.68	0
bin	0.7	0
bin	0.72	0
bin	0.74	0
bin	0.76	3
bin	0.78	0
bin	0.8	0
bin	0.82	0
bin	0.84	5
bin	0.86	6
bin	0.88	1
bin	0.9	4
bin	0.92	8
bin	0.94	0
bin	0.96	2
bin	0.98	111
bin	1	12105
bin	1.02	0
bin	1.04	0
bin	1.06	0
bin	1.08	0
bin	1.1	0
bin	1.12	0
bin	1.14	0
bin	1.16	0
bin	1.18	0
bin	1.2	0
bin	1.22	0
bin	1.24	0
bin	1.26	0
statistic Sc2.sensor6.wlan[0].radio bitErrorRate:histogram
field count 0
field mean -nan
field stddev -nan
field min -nan
field max -nan
field sum 0
field sqrsum 0
attr source bitErrorRate(packetSentToUpper)
attr title "Bit error rate, histogram"
bin	-inf	0
bin	0	0
bin	1	0
statistic Sc2.sensor6.wlan[0].radio symbolErrorRate:histogram
field count 0
field mean -nan
field stddev -nan
field min -nan
field max -nan
field sum 0
field sqrsum 0
attr source symbolErrorRate(packetSentToUpper)
attr title "Symbol error rate, histogram"
bin	-inf	0
bin	0	0
bin	1	0
scalar Sc2.sensor6.ipv4.ip packetDropAddressResolutionFailed:count 0
attr interpolationmode none
attr source packetDropReasonIsAddressResolutionFailed(packetDropped)
attr title "packet drop: address resolution failed, count"
scalar Sc2.sensor6.ipv4.ip packetDropAddressResolutionFailed:sum(packetBytes) 0
attr interpolationmode none
attr source packetDropReasonIsAddressResolutionFailed(packetDropped)
attr title "packet drop: address resolution failed, sum(packetBytes)"
scalar Sc2.sensor6.ipv4.ip packetDropHopLimitReached:count 0
attr interpolationmode none
attr source packetDropReasonIsHopLimitReached(packetDropped)
attr title "packet drop: hop limit reached, count"
scalar Sc2.sensor6.ipv4.ip packetDropHopLimitReached:sum(packetBytes) 0
attr interpolationmode none
attr source packetDropReasonIsHopLimitReached(packetDropped)
attr title "packet drop: hop limit reached, sum(packetBytes)"
scalar Sc2.sensor6.ipv4.ip packetDropForwardingDisabled:count 0
attr interpolationmode none
attr source packetDropReasonIsForwardingDisabled(packetDropped)
attr title "packet drop: forwarding disabled, count"
scalar Sc2.sensor6.ipv4.ip packetDropForwardingDisabled:sum(packetBytes) 0
attr interpolationmode none
attr source packetDropReasonIsForwardingDisabled(packetDropped)
attr title "packet drop: forwarding disabled, sum(packetBytes)"
scalar Sc2.sensor6.ipv4.ip packetDropNoInterfaceFound:count 0
attr interpolationmode none
attr source packetDropReasonIsNoInterfaceFound(packetDropped)
attr title "packet drop: no interface found, count"
scalar Sc2.sensor6.ipv4.ip packetDropNoInterfaceFound:sum(packetBytes) 0
attr interpolationmode none
attr source packetDropReasonIsNoInterfaceFound(packetDropped)
attr title "packet drop: no interface found, sum(packetBytes)"
scalar Sc2.sensor6.ipv4.ip packetDropNoRouteFound:count 0
attr interpolationmode none
attr source packetDropReasonIsNoRouteFound(packetDropped)
attr title "packet drop: no route found, count"
scalar Sc2.sensor6.ipv4.ip packetDropNoRouteFound:sum(packetBytes) 0
attr interpolationmode none
attr source packetDropReasonIsNoRouteFound(packetDropped)
attr title "packet drop: no route found, sum(packetBytes)"
scalar Sc2.sensor6.ipv4.ip packetDropUndefined:count 0
attr interpolationmode none
attr source packetDropReasonIsUndefined(packetDropped)
attr title "packet drop: undefined, count"
scalar Sc2.sensor6.ipv4.ip packetDropUndefined:sum(packetBytes) 0
attr interpolationmode none
attr source packetDropReasonIsUndefined(packetDropped)
attr title "packet drop: undefined, sum(packetBytes)"
scalar Sc2.sensor6.udp packetReceived:count 0
attr interpolationmode none
attr source packetReceived
attr title "packets received, count"
scalar Sc2.sensor6.udp packetReceived:sum(packetBytes) 0
attr interpolationmode none
attr source packetReceived
attr title "packets received, sum(packetBytes)"
scalar Sc2.sensor6.udp packetSent:count 39
attr interpolationmode none
attr source packetSent
attr title "packets sent, count"
scalar Sc2.sensor6.udp packetSent:sum(packetBytes) 365937
attr interpolationmode none
attr source packetSent
attr title "packets sent, sum(packetBytes)"
scalar Sc2.sensor6.udp passedUpPk:count 0
attr interpolationmode none
attr source packetSentToUpper
attr title "packets passed up, count"
scalar Sc2.sensor6.udp droppedPkWrongPort:count 0
attr interpolationmode none
attr source packetDropReasonIsNoPortFound(packetDropped)
attr title "packets dropped (wrong port), count"
scalar Sc2.sensor6.udp droppedPkBadChecksum:count 0
attr interpolationmode none
attr source packetDropReasonIsIncorrectlyReceived(packetDropped)
attr title "packets dropped (checksum error), count"
scalar Sc2.sensor6.app[0] "packets sent" 39
scalar Sc2.sensor6.app[0] "packets received" 0
scalar Sc2.sensor6.app[0] packetReceived:count 0
attr interpolationmode none
attr source packetReceived
attr title "packets received, count"
[...]
bin	0.062	0
bin	0.063	0
bin	0.064	0
bin	0.065	0
bin	0.066	0
bin	0.067	0
bin	0.068	0
bin	0.069	0
bin	0.07	0
bin	0.071	0
scalar Sc2.ap9.wlan[0].mac rcvdPkFromLl:count 194328
attr interpolationmode none
attr source packetReceivedFromLower
attr title "packets received from lower layer, count"
scalar Sc2.ap9.wlan[0].mac rcvdPkFromLl:sum(packetBytes) 98657848
attr interpolationmode none
attr source packetReceivedFromLower
attr title "packets received from lower layer, sum(packetBytes)"
scalar Sc2.ap9.wlan[0].mac sentDownPk:count 4815
attr interpolationmode none
attr source packetSentToLower
attr title "packets sent to lower layer, count"
scalar Sc2.ap9.wlan[0].mac sentDownPk:sum(packetBytes) 230978
attr interpolationmode none
attr source packetSentToLower
attr title "packets sent to lower layer, sum(packetBytes)"
scalar Sc2.ap9.wlan[0].mac rcvdPkFromHl:count 0
attr interpolationmode none
attr source packetReceivedFromUpper
attr title "packets received from higher layer, count"
scalar Sc2.ap9.wlan[0].mac rcvdPkFromHl:sum(packetBytes) 0
attr interpolationmode none
attr source packetReceivedFromUpper
attr title "packets received from higher layer, sum(packetBytes)"
scalar Sc2.ap9.wlan[0].mac passedUpPk:count 0
attr interpolationmode none
attr source packetSentToUpper
attr title "packets passed to higher layer, count"
scalar Sc2.ap9.wlan[0].mac passedUpPk:sum(packetBytes) 0
attr interpolationmode none
attr source packetSentToUpper
attr title "packets passed to higher layer, sum(packetBytes)"
scalar Sc2.ap9.wlan[0].mac packetDropIncorrectlyReceived:count 22170
attr interpolationmode none
attr source packetDropReasonIsIncorrectlyReceived(packetDropped)
attr title "packet drop: incorrectly received, count"
scalar Sc2.ap9.wlan[0].mac packetDropIncorrectlyReceived:sum(packetBytes) 20178059
attr interpolationmode none
attr source packetDropReasonIsIncorrectlyReceived(packetDropped)
attr title "packet drop: incorrectly received, sum(packetBytes)"
scalar Sc2.ap9.wlan[0].mac packetDropNotAddressedToUs:count 164776
attr interpolationmode none
attr source packetDropReasonIsNotAddressedToUs(packetDropped)
attr title "packet drop: not addressed to us, count"
scalar Sc2.ap9.wlan[0].mac packetDropNotAddressedToUs:sum(packetBytes) 78125995
attr interpolationmode none
attr source packetDropReasonIsNotAddressedToUs(packetDropped)
attr title "packet drop: not addressed to us, sum(packetBytes)"
scalar Sc2.ap9.wlan[0].mac packetDropQueueOverflow:count 0
attr interpolationmode none
attr source packetDropReasonIsQueueOverflow(packetDropped)
attr title "packet drop: queue overflow, count"
scalar Sc2.ap9.wlan[0].mac packetDropQueueOverflow:sum(packetBytes) 0
attr interpolationmode none
attr source packetDropReasonIsQueueOverflow(packetDropped)
attr title "packet drop: queue overflow, sum(packetBytes)"
scalar Sc2.ap9.wlan[0].mac packetDropRetryLimitReached:count 0
attr interpolationmode none
attr source packetDropReasonIsRetryLimitReached(packetDropped)
attr title "packet drop: retry limit reached, count"
scalar Sc2.ap9.wlan[0].mac packetDropRetryLimitReached:sum(packetBytes) 0
attr interpolationmode none
attr source packetDropReasonIsRetryLimitReached(packetDropped)
attr title "packet drop: retry limit reached, sum(packetBytes)"
scalar Sc2.ap9.wlan[0].mac linkBroken:count 0
attr interpolationmode none
attr source linkBroken
attr title "link break, count"
statistic Sc2.ap9.wlan[0].radio radioChannel:histogram
field count 1
field mean 0
field stddev -nan
field min 0
field max 0
field sum 0
field sqrsum 0
attr interpolationmode sample-hold
attr source radioChannelChanged
attr title "Radio channel, histogram"
bin	-inf	0
bin	-0.5	0
bin	-0.48	0
bin	-0.46	0
bin	-0.44	0
bin	-0.42	0
bin	-0.4	0
bin	-0.38	0
bin	-0.36	0
bin	-0.34	0
bin	-0.32	0
bin	-0.3	0
bin	-0.28	0
bin	-0.26	0
bin	-0.24	0
bin	-0.22	0
bin	-0.2	0
bin	-0.18	0
bin	-0.16	0
bin	-0.14	0
bin	-0.12	0
bin	-0.1	0
bin	-0.08	0
bin	-0.06	0
bin	-0.04	0
bin	-0.02	0
bin	0	1
bin	0.02	0
bin	0.04	0
bin	0.06	0
bin	0.08	0
bin	0.1	0
bin	0.12	0
bin	0.14	0
bin	0.16	0
bin	0.18	0
bin	0.2	0
bin	0.22	0
bin	0.24	0
bin	0.26	0
bin	0.28	0
bin	0.3	0
bin	0.32	0
bin	0.34	0
bin	0.36	0
bin	0.38	0
bin	0.4	0
bin	0.42	0
bin	0.44	0
bin	0.46	0
bin	0.48	0
bin	0.5	0
scalar Sc2.ap9.wlan[0].radio radioMode:count 9633
attr interpolationmode sample-hold
attr source radioModeChanged
attr title "Radio mode, count"
scalar Sc2.ap9.wlan[0].radio receptionState:count 421456
attr interpolationmode sample-hold
attr source receptionStateChanged
attr title "Radio reception state, count"
scalar Sc2.ap9.wlan[0].radio transmissionState:count 19260
attr interpolationmode sample-hold
attr source transmissionStateChanged
attr title "Radio transmission state, count"
statistic Sc2.ap9.wlan[0].radio minSnir:histogram
field count 194328
field mean 432.46201795545
field stddev 194.59321496406
field min 0.2208527594578
field max 8343.7932810738
field sum 84039479.025248
field sqrsum 43702369785.148
attr source minimumSnir(packetSentToUpper)
attr title "Min SNIR, histogram"
bin	-inf	0
bin	0	22813
bin	200	25237
bin	400	144531
bin	600	136
bin	800	0
bin	1000	0
bin	1200	506
bin	1400	1096
bin	1600	0
bin	1800	0
bin	2000	0
bin	2200	0
bin	2400	0
bin	2600	0
bin	2800	0
bin	3000	0
bin	3200	0
bin	3400	0
bin	3600	0
bin	3800	0
bin	4000	0
bin	4200	0
bin	4400	0
bin	4600	0
bin	4800	0
bin	5000	0
bin	5200	0
bin	5400	0
bin	5600	0
bin	5800	0
bin	6000	0
bin	6200	0
bin	6400	0
bin	6600	0
bin	6800	0
bin	7000	0
bin	7200	0
bin	7400	0
bin	7600	0
bin	7800	0
bin	8000	0
bin	8200	9
bin	8400	0
bin	8600	0
bin	8800	0
bin	9000	0
bin	9200	0
bin	9400	0
bin	9600	0
bin	9800	0
bin	10000	0
bin	10200	0
bin	10400	0
bin	10600	0
statistic Sc2.ap9.wlan[0].radio packetErrorRate:histogram
field count 194328
field mean 0.11408499848582
field stddev 0.3178272902424
field min 0
field max 1
field sum 22169.909585753
field sqrsum 22159.037906511
attr source packetErrorRate(packetSentToUpper)
attr title "Packet error rate, histogram"
bin	-inf	0
bin	0	172247
bin	1	22081
bin	2	0
statistic Sc2.ap9.wlan[0].radio bitErrorRate:histogram
field count 0
field mean -nan
field stddev -nan
field min -nan
field max -nan
field sum 0
field sqrsum 0
attr source bitErrorRate(packetSentToUpper)
attr title "Bit error rate, histogram"
bin	-inf	0
bin	0	0
bin	1	0
statistic Sc2.ap9.wlan[0].radio symbolErrorRate:histogram
field count 0
field mean -nan
field stddev -nan
field min -nan
field max -nan
field sum 0
field sqrsum 0
attr source symbolErrorRate(packetSentToUpper)
attr title "Symbol error rate, histogram"
bin	-inf	0
bin	0	0
bin	1	0
scalar Sc2.ap9.energyStorage residualEnergyCapacity:last 862.29806373859
attr interpolationmode linear
attr source residualEnergyCapacityChanged
attr title "Residual energy capacity, last"
scalar Sc2.sink9.lo[0].lo rcvdPkFromHl:count 0
attr interpolationmode none
attr source packetReceivedFromUpper
attr title "packets received from higher layer, count"
scalar Sc2.sink9.lo[0].lo rcvdPkFromHl:sum(packetBytes) 0
attr interpolationmode none
attr source packetReceivedFromUpper
attr title "packets received from higher layer, sum(packetBytes)"
scalar Sc2.sink9.lo[0].lo passedUpPk:count 0
attr interpolationmode none
attr source packetSentToUpper
attr title "packets passed to higher layer, count"
scalar Sc2.sink9.lo[0].lo passedUpPk:sum(packetBytes) 0
attr interpolationmode none
attr source packetSentToUpper
attr title "packets passed to higher layer, sum(packetBytes)"
scalar Sc2.sink9.wlan[0].agent dropConfirm:count 0
attr title "dropped confirms, count"
scalar Sc2.sink9.wlan[0].agent acceptConfirm:count 3
attr title "accepted confirms, count"
scalar Sc2.sink9.wlan[0].agent sentRequest:count 3
attr title "sent requests, count"
scalar Sc2.sink9.wlan[0].mac rcvdPkFromLl:count 164608
attr interpolationmode none
attr source packetReceivedFromLower
attr title "packets received from lower layer, count"
scalar Sc2.sink9.wlan[0].mac rcvdPkFromLl:sum(packetBytes) 62182792
attr interpolationmode none
attr source packetReceivedFromLower
attr title "packets received from lower layer, sum(packetBytes)"
scalar Sc2.sink9.wlan[0].mac sentDownPk:count 9
attr interpolationmode none
attr source packetSentToLower
attr title "packets sent to lower layer, count"
scalar Sc2.sink9.wlan[0].mac sentDownPk:sum(packetBytes) 206
attr interpolationmode none
attr source packetSentToLower
attr title "packets sent to lower layer, sum(packetBytes)"
scalar Sc2.sink9.wlan[0].mac rcvdPkFromHl:count 0
attr interpolationmode none
attr source packetReceivedFromUpper
attr title "packets received from higher layer, count"
scalar Sc2.sink9.wlan[0].mac rcvdPkFromHl:sum(packetBytes) 0
attr interpolationmode none
attr source packetReceivedFromUpper
attr title "packets received from higher layer, sum(packetBytes)"
scalar Sc2.sink9.wlan[0].mac passedUpPk:count 0
attr interpolationmode none
attr source packetSentToUpper
attr title "packets passed to higher layer, count"
scalar Sc2.sink9.wlan[0].mac passedUpPk:sum(packetBytes) 0
attr interpolationmode none
attr source packetSentToUpper
attr title "packets passed to higher layer, sum(packetBytes)"
scalar Sc2.sink9.wlan[0].mac packetDropIncorrectlyReceived:count 17489
attr interpolationmode none
attr source packetDropReasonIsIncorrectlyReceived(packetDropped)
attr title "packet drop: incorrectly received, count"
scalar Sc2.sink9.wlan[0].mac packetDropIncorrectlyReceived:sum(packetBytes) 14441666
attr interpolationmode none
attr source packetDropReasonIsIncorrectlyReceived(packetDropped)
attr title "packet drop: incorrectly received, sum(packetBytes)"
scalar Sc2.sink9.wlan[0].mac packetDropNotAddressedToUs:count 138262
attr interpolationmode none
attr source packetDropReasonIsNotAddressedToUs(packetDropped)
attr title "packet drop: not addressed to us, count"
scalar Sc2.sink9.wlan[0].mac packetDropNotAddressedToUs:sum(packetBytes) 47316212
attr interpolationmode none
attr source packetDropReasonIsNotAddressedToUs(packetDropped)
attr title "packet drop: not addressed to us, sum(packetBytes)"
scalar Sc2.sink9.wlan[0].mac packetDropQueueOverflow:count 0
attr interpolationmode none
attr source packetDropReasonIsQueueOverflow(packetDropped)
attr title "packet drop: queue overflow, count"
scalar Sc2.sink9.wlan[0].mac packetDropQueueOverflow:sum(packetBytes) 0
attr interpolationmode none
attr source packetDropReasonIsQueueOverflow(packetDropped)
attr title "packet drop: queue overflow, sum(packetBytes)"
scalar Sc2.sink9.wlan[0].mac packetDropRetryLimitReached:count 0
attr interpolationmode none
attr source packetDropReasonIsRetryLimitReached(packetDropped)
attr title "packet drop: retry limit reached, count"
scalar Sc2.sink9.wlan[0].mac packetDropRetryLimitReached:sum(packetBytes) 0
attr interpolationmode none
attr source packetDropReasonIsRetryLimitReached(packetDropped)
attr title "packet drop: retry limit reached, sum(packetBytes)"
scalar Sc2.sink9.wlan[0].mac linkBroken:count 0
attr interpolationmode none
attr source linkBroken
attr title "link break, count"
statistic Sc2.sink9.wlan[0].radio radioChannel:histogram
field count 4
field mean 0
field stddev 0
field min 0
field max 0
field sum 0
field sqrsum 0
attr interpolationmode sample-hold
attr source radioChannelChanged
attr title "Radio channel, histogram"
bin	-inf	0
bin	-0.5	0
bin	-0.48	0
bin	-0.46	0
bin	-0.44	0
bin	-0.42	0
bin	-0.4	0
bin	-0.38	0
bin	-0.36	0
bin	-0.34	0
bin	-0.32	0
bin	-0.3	0
bin	-0.28	0
bin	-0.26	0
bin	-0.24	0
bin	-0.22	0
bin	-0.2	0
bin	-0.18	0
bin	-0.16	0
bin	-0.14	0
bin	-0.12	0
bin	-0.1	0
bin	-0.08	0
bin	-0.06	0
bin	-0.04	0
bin	-0.02	0
bin	0	4
bin	0.02	0
bin	0.04	0
bin	0.06	0
bin	0.08	0
bin	0.1	0
bin	0.12	0
bin	0.14	0
bin	0.16	0
bin	0.18	0
bin	0.2	0
bin	0.22	0
bin	0.24	0
bin	0.26	0
bin	0.28	0
bin	0.3	0
bin	0.32	0
bin	0.34	0
bin	0.36	0
bin	0.38	0
bin	0.4	0
bin	0.42	0
bin	0.44	0
bin	0.46	0
bin	0.48	0
bin	0.5	0
scalar Sc2.sink9.wlan[0].radio radioMode:count 21
attr interpolationmode sample-hold
attr source radioModeChanged
attr title "Radio mode, count"
scalar Sc2.sink9.wlan[0].radio receptionState:count 359580
attr interpolationmode sample-hold
attr source receptionStateChanged
attr title "Radio reception state, count"
scalar Sc2.sink9.wlan[0].radio transmissionState:count 36
attr interpolationmode sample-hold
attr source transmissionStateChanged
attr title "Radio transmission state, count"
statistic Sc2.sink9.wlan[0].radio minSnir:histogram
field count 164608
field mean 625.03275146258
field stddev 1197.6588580854
field min 0.405725536617
field max 8343.7932810738
field sum 102885391.15275
field sqrsum 300416837286.35
attr source minimumSnir(packetSentToUpper)
attr title "Min SNIR, histogram"
bin	-inf	0
bin	0	18794
bin	200	0
bin	400	140415
bin	600	505
bin	800	1096
bin	1000	0
bin	1200	0
bin	1400	0
bin	1600	0
bin	1800	0
bin	2000	0
bin	2200	0
bin	2400	0
bin	2600	0
bin	2800	0
bin	3000	0
bin	3200	0
bin	3400	0
bin	3600	0
bin	3800	0
bin	4000	0
bin	4200	0
bin	4400	0
bin	4600	0
bin	4800	0
bin	5000	0
bin	5200	0
bin	5400	0
bin	5600	0
bin	5800	0
bin	6000	0
bin	6200	0
bin	6400	0
bin	6600	0
bin	6800	0
bin	7000	0
bin	7200	0
bin	7400	0
bin	7600	0
bin	7800	0
bin	8000	0
bin	8200	3798
bin	8400	0
bin	8600	0
bin	8800	0
bin	9000	0
bin	9200	0
bin	9400	0
bin	9600	0
bin	9800	0
bin	10000	0
bin	10200	0
bin	10400	0
bin	10600	0
statistic Sc2.sink9.wlan[0].radio packetErrorRate:histogram
field count 164608
field mean 0.10617960764461
field stddev 0.30738296123837
field min 0
field max 1
field sum 17478.012855165
field sqrsum 17408.583225264
attr source packetErrorRate(packetSentToUpper)
attr title "Packet error rate, histogram"
bin	-inf	0
bin	0	146813
bin	0.02	196
bin	0.04	0
bin	0.06	0
bin	0.08	14
bin	0.1	0
bin	0.12	0
bin	0.14	0
bin	0.16	30
bin	0.18	0
bin	0.2	0
bin	0.22	0
bin	0.24	0
bin	0.26	0
bin	0.28	0
bin	0.3	1
bin	0.32	0
bin	0.34	0
bin	0.36	0
bin	0.38	0
bin	0.4	0
bin	0.42	1
bin	0.44	0
bin	0.46	0
bin	0.48	0
bin	0.5	118
bin	0.52	0
bin	0.54	0
bin	0.56	0
bin	0.58	0
bin	0.6	0
bin	0.62	0
bin	0.64	0
bin	0.66	0
bin	0.68	0
bin	0.7	0
bin	0.72	3
bin	0.74	0
bin	0.76	0
bin	0.78	0
bin	0.8	0
bin	0.82	180
bin	0.84	0
bin	0.86	0
bin	0.88	0
bin	0.9	0
bin	0.92	0
bin	0.94	0
bin	0.96	18
bin	0.98	22
bin	1	17212
bin	1.02	0
statistic Sc2.sink9.wlan[0].radio bitErrorRate:histogram
field count 0
field mean -nan
field stddev -nan
field min -nan
field max -nan
field sum 0
field sqrsum 0
attr source bitErrorRate(packetSentToUpper)
attr title "Bit error rate, histogram"
bin	-inf	0
bin	0	0
bin	1	0
statistic Sc2.sink9.wlan[0].radio symbolErrorRate:histogram
field count 0
field mean -nan
field stddev -nan
field min -nan
field max -nan
field sum 0
field sqrsum 0
attr source symbolErrorRate(packetSentToUpper)
attr title "Symbol error rate, histogram"
bin	-inf	0
bin	0	0
bin	1	0
scalar Sc2.sink9.ipv4.ip packetDropAddressResolutionFailed:count 0
attr interpolationmode none
attr source packetDropReasonIsAddressResolutionFailed(packetDropped)
attr title "packet drop: address resolution failed, count"
scalar Sc2.sink9.ipv4.ip packetDropAddressResolutionFailed:sum(packetBytes) 0
attr interpolationmode none
attr source packetDropReasonIsAddressResolutionFailed(packetDropped)
attr title "packet drop: address resolution failed, sum(packetBytes)"
scalar Sc2.sink9.ipv4.ip packetDropHopLimitReached:count 0
attr interpolationmode none
attr source packetDropReasonIsHopLimitReached(packetDropped)
attr title "packet drop: hop limit reached, count"
scalar Sc2.sink9.ipv4.ip packetDropHopLimitReached:sum(packetBytes) 0
attr interpolationmode none
attr source packetDropReasonIsHopLimitReached(packetDropped)
attr title "packet drop: hop limit reached, sum(packetBytes)"
scalar Sc2.sink9.ipv4.ip packetDropForwardingDisabled:count 0
attr interpolationmode none
attr source packetDropReasonIsForwardingDisabled(packetDropped)
attr title "packet drop: forwarding disabled, count"
scalar Sc2.sink9.ipv4.ip packetDropForwardingDisabled:sum(packetBytes) 0
attr interpolationmode none
attr source packetDropReasonIsForwardingDisabled(packetDropped)
attr title "packet drop: forwarding disabled, sum(packetBytes)"
scalar Sc2.sink9.ipv4.ip packetDropNoInterfaceFound:count 0
attr interpolationmode none
attr source packetDropReasonIsNoInterfaceFound(packetDropped)
attr title "packet drop: no interface found, count"
scalar Sc2.sink9.ipv4.ip packetDropNoInterfaceFound:sum(packetBytes) 0
attr interpolationmode none
attr source packetDropReasonIsNoInterfaceFound(packetDropped)
attr title "packet drop: no interface found, sum(packetBytes)"
scalar Sc2.sink9.ipv4.ip packetDropNoRouteFound:count 0
attr interpolationmode none
attr source packetDropReasonIsNoRouteFound(packetDropped)
attr title "packet drop: no route found, count"
scalar Sc2.sink9.ipv4.ip packetDropNoRouteFound:sum(packetBytes) 0
attr interpolationmode none
attr source packetDropReasonIsNoRouteFound(packetDropped)
attr title "packet drop: no route found, sum(packetBytes)"
scalar Sc2.sink9.ipv4.ip packetDropUndefined:count 0
attr interpolationmode none
attr source packetDropReasonIsUndefined(packetDropped)
attr title "packet drop: undefined, count"
scalar Sc2.sink9.ipv4.ip packetDropUndefined:sum(packetBytes) 0
attr interpolationmode none
attr source packetDropReasonIsUndefined(packetDropped)
attr title "packet drop: undefined, sum(packetBytes)"
scalar Sc2.sink9.udp packetReceived:count 0
attr interpolationmode none
attr source packetReceived
attr title "packets received, count"
scalar Sc2.sink9.udp packetReceived:sum(packetBytes) 0
attr interpolationmode none
attr source packetReceived
attr title "packets received, sum(packetBytes)"
scalar Sc2.sink9.udp packetSent:count 0
attr interpolationmode none
attr source packetSent
attr title "packets sent, count"
scalar Sc2.sink9.udp packetSent:sum(packetBytes) 0
attr interpolationmode none
attr source packetSent
attr title "packets sent, sum(packetBytes)"
scalar Sc2.sink9.udp passedUpPk:count 0
attr interpolationmode none
attr source packetSentToUpper
attr title "packets passed up, count"
scalar Sc2.sink9.udp droppedPkWrongPort:count 0
attr interpolationmode none
attr source packetDropReasonIsNoPortFound(packetDropped)
attr title "packets dropped (wrong port), count"
scalar Sc2.sink9.udp droppedPkBadChecksum:count 0
attr interpolationmode none
attr source packetDropReasonIsIncorrectlyReceived(packetDropped)
attr title "packets dropped (checksum error), count"
scalar Sc2.sink9.app[0] packetReceived:count 0
attr interpolationmode none
attr source packetReceived
attr title "packets received, count"
scalar Sc2.sink9.app[0] packetReceived:sum(packetBytes) 0
attr interpolationmode none
attr source packetReceived
attr title "packets received, sum(packetBytes)"
statistic Sc2.sink9.app[0] endToEndDelay:histogram
field count 0
field mean -nan
field stddev -nan
field min -nan
field max -nan
field sum 0
field sqrsum 0
attr interpolationmode none
attr source dataAge(packetReceived)
attr title "end-to-end delay, histogram"
attr unit s
bin	-inf	0
bin	0	0
bin	1	0
statistic Sc2.sink9.app[0] jitter:histogram
field count 0
field mean -nan
field stddev -nan
field min -nan
field max -nan
field sum 0
field sqrsum 0
attr interpolationmode none
attr source jitter(packetReceived)
attr title "jitter, histogram"
attr unit s
bin	-inf	0
bin	0	0
bin	1	0
scalar Sc2 handoverTime:mean -nan
attr interpolationmode none
attr source handoverDelay
attr title "handoverTime, mean"
attr unit s
scalar Sc2 packetReceived:count 22490
attr interpolationmode none
attr source (packetReceived)
attr title "packets received, count"
scalar Sc2 packetReceived:sum(packetBytes) 210933710
attr interpolationmode none
attr source (packetReceived)
attr title "packets received, sum(packetBytes)"
scalar Sc2 packetLoss:last 2418
attr interpolationmode none
attr source (count(packetSent)-count(packetReceived))
attr title "packet loss, last"
scalar Sc2 packetSent:count 24908
attr interpolationmode none
attr source (packetSent)
attr title "packets sent, count"
scalar Sc2 packetSent:sum(packetBytes) 233612132
attr interpolationmode none
attr source (packetSent)
attr title "packets sent, sum(packetBytes)"

